ver_1.2
     RDKit          3D

 20 22  0  0  0  0  0  0  0  0999 V2000
   -3.6881    2.4912    1.3325 C   0  0  0  0  0  0  0  0  0  0  0  0
   -2.7224    1.4778    0.9393 N   0  0  0  0  0  0  0  0  0  0  0  0
   -1.6553    1.1620    1.6538 N   0  0  0  0  0  0  0  0  0  0  0  0
   -1.0042    0.2089    1.0030 C   0  0  0  0  0  0  0  0  0  0  0  0
    0.2332   -0.4177    1.4595 C   0  0  0  0  0  0  0  0  0  0  0  0
    0.7461   -0.0478    2.5486 O   0  0  0  0  0  0  0  0  0  0  0  0
    0.8860   -1.4401    0.7116 N   0  0  0  0  0  0  0  0  0  0  0  0
    2.0988   -2.0563    1.1559 C   0  0  0  0  0  0  0  0  0  0  0  0
    3.1727   -0.9966    1.2924 C   0  0  0  0  0  0  0  0  0  0  0  0
    3.3506   -0.3841   -0.0514 C   0  0  0  0  0  0  0  0  0  0  0  0
    2.6338    0.7237   -0.5005 C   0  0  0  0  0  0  0  0  0  0  0  0
    3.0784    0.9476   -1.7160 O   0  0  0  0  0  0  0  0  0  0  0  0
    3.9962    0.0923   -2.0643 C   0  0  0  0  0  0  0  0  0  0  0  0
    4.1743   -0.7366   -1.0450 N   0  0  0  0  0  0  0  0  0  0  0  0
   -1.6579   -0.1229   -0.1855 C   0  0  0  0  0  0  0  0  0  0  0  0
   -1.4290   -1.0056   -1.1969 C   0  0  0  0  0  0  0  0  0  0  0  0
   -2.3375   -1.0479   -2.2500 C   0  0  0  0  0  0  0  0  0  0  0  0
   -3.4471   -0.2295   -2.2927 C   0  0  0  0  0  0  0  0  0  0  0  0
   -3.6585    0.6574   -1.2561 C   0  0  0  0  0  0  0  0  0  0  0  0
   -2.7701    0.7244   -0.1896 C   0  0  0  0  0  0  0  0  0  0  0  0
  1  2  1  0
  2  3  1  0
  3  4  2  0
  4  5  1  0
  5  6  2  0
  5  7  1  0
  7  8  1  0
  8  9  1  0
  9 10  1  0
 10 11  2  0
 11 12  1  0
 12 13  1  0
 13 14  2  0
  4 15  1  0
 15 16  2  0
 16 17  1  0
 17 18  2  0
 18 19  1  0
 19 20  2  0
 20  2  1  0
 14 10  1  0
 20 15  1  0
M  END
>  <ref_url>  (1) 
https://hippo.winokan.com

>  <submitter_name>  (1) 
Max Winokan

>  <submitter_email>  (1) 
max.winokan@diamond.ac.uk

>  <submitter_institution>  (1) 
DLS

>  <generation_date>  (1) 
2025-11-06

>  <method>  (1) 
ASAP-0031281-001_elabs

>  <observation_longname>  (1) 
observation_longname

>  <ConformerSites alias>  (1) 
ConformerSites alias

>  <CanonSites alias>  (1) 
CanonSites alias

>  <CrystalformSites alias>  (1) 
CrystalformSites alias

>  <Quatassemblies alias>  (1) 
Quatassemblies alias

>  <Crystalforms alias>  (1) 
Crystalforms alias

>  <ConformerSites upload name>  (1) 
ConformerSites upload name

>  <CanonSites upload name>  (1) 
CanonSites upload name

>  <CrystalformSites upload name>  (1) 
CrystalformSites upload name

>  <Quatassemblies upload name>  (1) 
Quatassemblies upload name

>  <Crystalforms upload name>  (1) 
Crystalforms upload name

>  <ConformerSites short tag>  (1) 
ConformerSites short tag

>  <CanonSites short tag>  (1) 
CanonSites short tag

>  <CrystalformSites short tag>  (1) 
CrystalformSites short tag

>  <Quatassemblies short tag>  (1) 
Quatassemblies short tag

>  <Crystalforms short tag>  (1) 
Crystalforms short tag

>  <Centroid res>  (1) 
Centroid res

>  <Experiment code>  (1) 
Experiment code

>  <Pose>  (1) 
Pose

>  <exports>  (1) 
exports

>  <HIPPO Pose ID>  (1) 
HIPPO Pose ID

>  <HIPPO Compound ID>  (1) 
HIPPO Compound ID

>  <smiles>  (1) 
smiles

>  <ref_pdb>  (1) 
protein reference

>  <ref_mols>  (1) 
fragment inspirations

>  <alias>  (1) 
alias

>  <distance_score>  (1) 
distance_score

>  <energy_score>  (1) 
energy_score

>  <inspiration_score>  (1) 
inspiration_score

>  <subsites>  (1) 
subsites

>  <tags>  (1) 
tags

$$$$
P45216
     RDKit          3D

 20 22  0  0  0  0  0  0  0  0999 V2000
    9.3292    8.7636   23.1772 C   0  0  0  0  0  0  0  0  0  0  0  0
    9.1883   10.0280   23.8580 N   0  0  0  0  0  0  0  0  0  0  0  0
   10.0254   11.0209   23.5199 N   0  0  0  0  0  0  0  0  0  0  0  0
    9.6826   12.0353   24.3356 C   0  0  0  0  0  0  0  0  0  0  0  0
   10.4689   13.2728   24.3591 C   0  0  0  0  0  0  0  0  0  0  0  0
   10.3470   14.0712   25.1975 O   0  0  0  0  0  0  0  0  0  0  0  0
   11.3450   13.2759   23.1073 N   0  0  0  0  0  0  0  0  0  0  0  0
   12.3251   14.2113   22.6647 C   0  0  0  0  0  0  0  0  0  0  0  0
   12.3530   14.3672   21.1618 C   0  0  0  0  0  0  0  0  0  0  0  0
   11.1093   14.9501   20.6120 C   0  0  0  0  0  0  0  0  0  0  0  0
   10.7262   15.0449   19.2997 C   0  0  0  0  0  0  0  0  0  0  0  0
    9.6494   15.8725   19.2276 O   0  0  0  0  0  0  0  0  0  0  0  0
    9.4263   16.2265   20.5194 C   0  0  0  0  0  0  0  0  0  0  0  0
   10.2276   15.6564   21.3873 N   0  0  0  0  0  0  0  0  0  0  0  0
    8.5512   11.7173   25.1195 C   0  0  0  0  0  0  0  0  0  0  0  0
    7.7571   12.4031   26.0570 C   0  0  0  0  0  0  0  0  0  0  0  0
    6.7251   11.7195   26.7009 C   0  0  0  0  0  0  0  0  0  0  0  0
    6.4945   10.3755   26.4278 C   0  0  0  0  0  0  0  0  0  0  0  0
    7.2705    9.6881   25.4899 C   0  0  0  0  0  0  0  0  0  0  0  0
    8.2847   10.3834   24.8302 C   0  0  0  0  0  0  0  0  0  0  0  0
  1  2  1  0
  2  3  1  0
  3  4  2  0
  4  5  1  0
  5  6  2  0
  5  7  1  0
  7  8  1  0
  8  9  1  0
  9 10  1  0
 10 11  2  0
 11 12  1  0
 12 13  1  0
 13 14  2  0
  4 15  1  0
 15 16  2  0
 16 17  1  0
 17 18  2  0
 18 19  1  0
 19 20  2  0
 20  2  1  0
 14 10  1  0
 20 15  1  0
M  END
>  <energy_score>  (1) 
-27.234092

>  <fragmenstein_runtime>  (1) 
2.309117

>  <HIPPO Pose ID>  (1) 
45216

>  <fragmenstein_error>  (1) 


>  <alias>  (1) 
None

>  <orig_smiles>  (1) 
nan

>  <smiles>  (1) 
Cn1nc(C(=O)NCCc2cocn2)c2ccccc21

>  <inchikey>  (1) 
ONGQCMNCDUWDOR-UHFFFAOYSA-N

>  <HIPPO Compound ID>  (1) 
107

>  <fragmenstein_mode>  (1) 
expansion

>  <fragmenstein_outcome>  (1) 
acceptable

>  <distance_score>  (1) 
0.542984

>  <subsites>  (1) 
1 - Active Site

>  <scratch_subdir>  (1) 
/opt/xchem-fragalysis-2/maxwin/BulkDock/SCRATCH/513027/C107-P126

>  <inspiration_score>  (1) 
None

>  <name>  (1) 
P45216

>  <ref_mols>  (1) 
A2290a,A3436a

>  <ref_pdb>  (1) 
A2290a

>  <exports>  (1) 
['/opt/xchem-fragalysis-2/maxwin/BulkDock/OUTPUTS/openbind_a71ev2a_c1_fragmenstein_165VU4J.sdf', '/opt/xchem-fragalysis-2/maxwin/BulkDock/OUTPUTS/openbind_a71ev2a_c1_fragmenstein_1B07P1I.sdf', '/opt/xchem-fragalysis-2/maxwin/BulkDock/OUTPUTS/openbind_a71ev2a_c1_fragmenstein_1B07Y79.sdf', '/opt/xchem-fragalysis-2/maxwin/openbind-hippo/a71ev2a/openbind_a71ev2a_c1_scaffold_products.sdf', '/opt/xchem-fragalysis-2/maxwin/openbind-hippo/a71ev2a/cycle_01/bulkdock/openbind_a71ev2a_c1_scaffold_products.sdf', '/opt/xchem-fragalysis-2/maxwin/openbind-hippo/a71ev2a/cycle_01/bulkdock/openbind_a71ev2a_c1_scaffolds.sdf']

>  <Energy>  (1) 
73.960287

>  <tags>  (1) 
fragmenstein_placed,BulkDock Fragalysis export,openbind_a71ev2a_c1_scaffolds,openbind_a71ev2a_c1_scaffolds_chemok_bbok,openbind_a71ev2a_c1_fragmenstein

>  <GNINA pK>  (1) 
5.753

$$$$
P56420
     RDKit          3D

 22 24  0  0  0  0  0  0  0  0999 V2000
   11.4844   15.1778   24.0158 C   0  0  0  0  0  0  0  0  0  0  0  0
   11.5170   14.1471   22.8949 C   0  0  2  0  0  0  0  0  0  0  0  0
   11.8995   14.7496   21.5516 C   0  0  0  0  0  0  0  0  0  0  0  0
   10.9403   15.6292   20.8713 C   0  0  0  0  0  0  0  0  0  0  0  0
   10.8035   15.7968   19.5138 C   0  0  0  0  0  0  0  0  0  0  0  0
    9.9986   16.8639   19.3161 O   0  0  0  0  0  0  0  0  0  0  0  0
    9.6658   17.2660   20.5769 C   0  0  0  0  0  0  0  0  0  0  0  0
   10.1502   16.5242   21.5452 N   0  0  0  0  0  0  0  0  0  0  0  0
   10.2409   13.5250   22.8845 N   0  0  0  0  0  0  0  0  0  0  0  0
    9.7667   12.2167   23.5224 C   0  0  0  0  0  0  0  0  0  0  0  0
   10.3609   11.3987   24.0940 O   0  0  0  0  0  0  0  0  0  0  0  0
    8.3066   12.2117   23.3665 C   0  0  0  0  0  0  0  0  0  0  0  0
    7.7576   13.1732   22.5890 N   0  0  0  0  0  0  0  0  0  0  0  0
    7.0424   13.8485   23.4936 N   0  0  0  0  0  0  0  0  0  0  0  0
    6.9458   15.2767   23.3317 C   0  0  0  0  0  0  0  0  0  0  0  0
    6.6806   13.0614   24.5597 C   0  0  0  0  0  0  0  0  0  0  0  0
    5.8266   13.2847   25.6393 C   0  0  0  0  0  0  0  0  0  0  0  0
    5.6343   12.2304   26.5293 C   0  0  0  0  0  0  0  0  0  0  0  0
    6.3084   11.0289   26.3643 C   0  0  0  0  0  0  0  0  0  0  0  0
    6.0667   10.0389   27.2319 F   0  0  0  0  0  0  0  0  0  0  0  0
    7.2482   10.8412   25.3541 C   0  0  0  0  0  0  0  0  0  0  0  0
    7.3988   11.8663   24.4050 C   0  0  0  0  0  0  0  0  0  0  0  0
  2  1  1  1
  2  3  1  0
  3  4  1  0
  4  5  2  0
  5  6  1  0
  6  7  1  0
  7  8  2  0
  2  9  1  0
  9 10  1  0
 10 11  2  0
 10 12  1  0
 12 13  2  0
 13 14  1  0
 14 15  1  0
 14 16  1  0
 16 17  2  0
 17 18  1  0
 18 19  2  0
 19 20  1  0
 19 21  1  0
 21 22  2  0
  8  4  1  0
 22 12  1  0
 22 16  1  0
M  END
>  <energy_score>  (2) 
13.542872

>  <fragmenstein_runtime>  (2) 
5.549292

>  <HIPPO Pose ID>  (2) 
56420

>  <fragmenstein_error>  (2) 


>  <alias>  (2) 
None

>  <orig_smiles>  (2) 
nan

>  <smiles>  (2) 
C[C@H](Cc1cocn1)NC(=O)c1nn(C)c2ccc(F)cc12

>  <inchikey>  (2) 
LLDZPHCJSJZSFN-UHFFFAOYSA-N

>  <HIPPO Compound ID>  (2) 
191887

>  <fragmenstein_mode>  (2) 
expansion

>  <fragmenstein_outcome>  (2) 
too moved

>  <distance_score>  (2) 
1.711796

>  <subsites>  (2) 
1 - Active Site

>  <scratch_subdir>  (2) 
/opt/xchem-fragalysis-2/maxwin/BulkDock/SCRATCH/513030/C191887-P192

>  <inspiration_score>  (2) 
None

>  <name>  (2) 
P56420

>  <ref_mols>  (2) 
A3510a,A4935a

>  <ref_pdb>  (2) 
A3510a

>  <exports>  (2) 
['/opt/xchem-fragalysis-2/maxwin/openbind-hippo/a71ev2a/cycle_01/syndirella/elabs/ASAP-0031281-001_elabs.sdf']

>  <Energy>  (2) 
99.979592

>  <tags>  (2) 
fragmenstein_placed,openbind_a71ev2a_c1_fragmenstein

>  <GNINA pK>  (2) 
nan

$$$$
P497883
     RDKit          3D

 22 24  0  0  0  0  0  0  0  0999 V2000
   11.6855   14.5208   18.4365 C   0  0  0  0  0  0  0  0  0  0  0  0
   10.8908   14.9585   19.5744 C   0  0  0  0  0  0  0  0  0  0  0  0
    9.7819   15.7243   19.3881 O   0  0  0  0  0  0  0  0  0  0  0  0
    9.4125   16.0384   20.6588 C   0  0  0  0  0  0  0  0  0  0  0  0
   10.1429   15.4838   21.6017 N   0  0  0  0  0  0  0  0  0  0  0  0
   11.1367   14.8563   20.9136 C   0  0  0  0  0  0  0  0  0  0  0  0
   12.3623   14.2966   21.5153 C   0  0  0  0  0  0  0  0  0  0  0  0
   12.3058   14.1662   23.0095 C   0  0  0  0  0  0  0  0  0  0  0  0
   11.3563   13.2078   23.4471 N   0  0  0  0  0  0  0  0  0  0  0  0
   10.3299   13.2719   24.5719 C   0  0  0  0  0  0  0  0  0  0  0  0
   10.1426   14.0903   25.3768 O   0  0  0  0  0  0  0  0  0  0  0  0
    9.5422   12.0424   24.4892 C   0  0  0  0  0  0  0  0  0  0  0  0
    9.9164   11.0471   23.6634 N   0  0  0  0  0  0  0  0  0  0  0  0
    9.0761   10.0452   23.9496 N   0  0  0  0  0  0  0  0  0  0  0  0
    9.2500    8.8015   23.2388 C   0  0  0  0  0  0  0  0  0  0  0  0
    8.1503   10.3734   24.9116 C   0  0  0  0  0  0  0  0  0  0  0  0
    7.1308    9.6571   25.5380 C   0  0  0  0  0  0  0  0  0  0  0  0
    6.3384   10.3174   26.4800 C   0  0  0  0  0  0  0  0  0  0  0  0
    6.5624   11.6528   26.7790 C   0  0  0  0  0  0  0  0  0  0  0  0
    5.7917   12.2537   27.6954 F   0  0  0  0  0  0  0  0  0  0  0  0
    7.5878   12.3676   26.1742 C   0  0  0  0  0  0  0  0  0  0  0  0
    8.3965   11.7047   25.2349 C   0  0  0  0  0  0  0  0  0  0  0  0
  1  2  1  0
  2  3  1  0
  3  4  1  0
  4  5  2  0
  5  6  1  0
  6  7  1  0
  7  8  1  0
  8  9  1  0
  9 10  1  0
 10 11  2  0
 10 12  1  0
 12 13  2  0
 13 14  1  0
 14 15  1  0
 14 16  1  0
 16 17  2  0
 17 18  1  0
 18 19  2  0
 19 20  1  0
 19 21  1  0
 21 22  2  0
  6  2  2  0
 22 12  1  0
 22 16  1  0
M  END
>  <energy_score>  (3) 
-21.210933

>  <fragmenstein_runtime>  (3) 
nan

>  <HIPPO Pose ID>  (3) 
497883

>  <fragmenstein_error>  (3) 
nan

>  <alias>  (3) 
None

>  <orig_smiles>  (3) 
nan

>  <smiles>  (3) 
None

>  <inchikey>  (3) 
None

>  <HIPPO Compound ID>  (3) 
250891

>  <fragmenstein_mode>  (3) 
nan

>  <fragmenstein_outcome>  (3) 
nan

>  <distance_score>  (3) 
0.738298

>  <subsites>  (3) 
None

>  <scratch_subdir>  (3) 
nan

>  <inspiration_score>  (3) 
None

>  <name>  (3) 
P497883

>  <ref_mols>  (3) 
A2290a,A3436a

>  <ref_pdb>  (3) 
A2290a

>  <exports>  (3) 
['/opt/xchem-fragalysis-2/maxwin/openbind-hippo/a71ev2a/cycle_01/syndirella/elabs/openbind_a71ev2a_c1_elab_chemspace_filtered.sdf', '/opt/xchem-fragalysis-2/maxwin/openbind-hippo/a71ev2a/cycle_01/syndirella/elabs/ASAP-0031281-001_elabs.sdf']

>  <Energy>  (3) 
nan

>  <tags>  (3) 
openbind_a71ev2a_c1_elabs_filtered

>  <GNINA pK>  (3) 
nan

$$$$
P497884
     RDKit          3D

 22 24  0  0  0  0  0  0  0  0999 V2000
    8.5927   17.4018   20.7008 C   0  0  0  0  0  0  0  0  0  0  0  0
    9.5635   16.3208   20.4676 C   0  0  0  0  0  0  0  0  0  0  0  0
   10.3373   15.7219   21.3450 N   0  0  0  0  0  0  0  0  0  0  0  0
   11.1630   14.9388   20.5868 C   0  0  0  0  0  0  0  0  0  0  0  0
   12.3878   14.3359   21.1521 C   0  0  0  0  0  0  0  0  0  0  0  0
   12.3328   14.1895   22.6558 C   0  0  0  0  0  0  0  0  0  0  0  0
   11.3208   13.2806   23.0847 N   0  0  0  0  0  0  0  0  0  0  0  0
   10.4662   13.2717   24.3498 C   0  0  0  0  0  0  0  0  0  0  0  0
   10.3915   14.0455   25.2159 O   0  0  0  0  0  0  0  0  0  0  0  0
    9.6707   12.0407   24.3285 C   0  0  0  0  0  0  0  0  0  0  0  0
   10.0077   11.0205   23.5171 N   0  0  0  0  0  0  0  0  0  0  0  0
    9.1711   10.0323   23.8635 N   0  0  0  0  0  0  0  0  0  0  0  0
    9.3129    8.7637   23.1918 C   0  0  0  0  0  0  0  0  0  0  0  0
    8.2671   10.3951   24.8328 C   0  0  0  0  0  0  0  0  0  0  0  0
    7.2493    9.7034   25.4934 C   0  0  0  0  0  0  0  0  0  0  0  0
    6.4814   10.3975   26.4314 C   0  0  0  0  0  0  0  0  0  0  0  0
    6.7304   11.7367   26.6950 C   0  0  0  0  0  0  0  0  0  0  0  0
    5.9850   12.3699   27.6106 F   0  0  0  0  0  0  0  0  0  0  0  0
    7.7554   12.4241   26.0556 C   0  0  0  0  0  0  0  0  0  0  0  0
    8.5401   11.7306   25.1169 C   0  0  0  0  0  0  0  0  0  0  0  0
   10.7618   14.9994   19.2786 C   0  0  0  0  0  0  0  0  0  0  0  0
    9.7280   15.8804   19.1878 O   0  0  0  0  0  0  0  0  0  0  0  0
  1  2  1  0
  2  3  2  0
  3  4  1  0
  4  5  1  0
  5  6  1  0
  6  7  1  0
  7  8  1  0
  8  9  2  0
  8 10  1  0
 10 11  2  0
 11 12  1  0
 12 13  1  0
 12 14  1  0
 14 15  2  0
 15 16  1  0
 16 17  2  0
 17 18  1  0
 17 19  1  0
 19 20  2  0
  4 21  2  0
 21 22  1  0
 22  2  1  0
 20 10  1  0
 20 14  1  0
M  END
>  <energy_score>  (4) 
-10.521861

>  <fragmenstein_runtime>  (4) 
nan

>  <HIPPO Pose ID>  (4) 
497884

>  <fragmenstein_error>  (4) 
nan

>  <alias>  (4) 
None

>  <orig_smiles>  (4) 
nan

>  <smiles>  (4) 
None

>  <inchikey>  (4) 
None

>  <HIPPO Compound ID>  (4) 
289825

>  <fragmenstein_mode>  (4) 
nan

>  <fragmenstein_outcome>  (4) 
nan

>  <distance_score>  (4) 
0.533466

>  <subsites>  (4) 
None

>  <scratch_subdir>  (4) 
nan

>  <inspiration_score>  (4) 
None

>  <name>  (4) 
P497884

>  <ref_mols>  (4) 
A2290a,A3436a

>  <ref_pdb>  (4) 
A2290a

>  <exports>  (4) 
['/opt/xchem-fragalysis-2/maxwin/openbind-hippo/a71ev2a/cycle_01/bulkdock/openbind_a71ev2a_c1_elab_chemspace.sdf', '/opt/xchem-fragalysis-2/maxwin/openbind-hippo/a71ev2a/cycle_01/syndirella/elabs/openbind_a71ev2a_c1_elab_chemspace_filtered.sdf', '/opt/xchem-fragalysis-2/maxwin/openbind-hippo/a71ev2a/cycle_01/syndirella/elabs/ASAP-0031281-001_elabs.sdf']

>  <Energy>  (4) 
nan

>  <tags>  (4) 
openbind_a71ev2a_c1_elabs_filtered

>  <GNINA pK>  (4) 
nan

$$$$
P497885
     RDKit          3D

 22 24  0  0  0  0  0  0  0  0999 V2000
   12.6559   15.0012   22.0682 C   0  0  0  0  0  0  0  0  0  0  0  0
   11.9101   13.9972   21.2454 C   0  0  2  0  0  0  0  0  0  0  0  0
   11.2887   14.5532   19.9653 C   0  0  0  0  0  0  0  0  0  0  0  0
   10.2368   15.5871   20.0247 C   0  0  0  0  0  0  0  0  0  0  0  0
    9.8739   16.4356   18.9998 C   0  0  0  0  0  0  0  0  0  0  0  0
    9.0104   17.3558   19.4876 O   0  0  0  0  0  0  0  0  0  0  0  0
    8.8537   16.9785   20.7807 C   0  0  0  0  0  0  0  0  0  0  0  0
    9.5237   15.9030   21.1428 N   0  0  0  0  0  0  0  0  0  0  0  0
   11.0675   13.1212   22.0164 N   0  0  0  0  0  0  0  0  0  0  0  0
   10.4702   13.2914   23.4228 C   0  0  0  0  0  0  0  0  0  0  0  0
   10.5008   14.2004   24.1522 O   0  0  0  0  0  0  0  0  0  0  0  0
    9.7536   12.0491   23.7589 C   0  0  0  0  0  0  0  0  0  0  0  0
   10.0250   10.9209   23.0831 N   0  0  0  0  0  0  0  0  0  0  0  0
    9.2582    9.9859   23.6526 N   0  0  0  0  0  0  0  0  0  0  0  0
    9.3292    8.6483   23.1219 C   0  0  0  0  0  0  0  0  0  0  0  0
    8.4454   10.4701   24.6475 C   0  0  0  0  0  0  0  0  0  0  0  0
    7.4791    9.8642   25.4596 C   0  0  0  0  0  0  0  0  0  0  0  0
    6.7999   10.6711   26.3750 C   0  0  0  0  0  0  0  0  0  0  0  0
    7.0879   12.0266   26.4700 C   0  0  0  0  0  0  0  0  0  0  0  0
    6.4343   12.7687   27.3744 F   0  0  0  0  0  0  0  0  0  0  0  0
    8.0526   12.6292   25.6647 C   0  0  0  0  0  0  0  0  0  0  0  0
    8.7452   11.8307   24.7361 C   0  0  0  0  0  0  0  0  0  0  0  0
  2  1  1  1
  2  3  1  0
  3  4  1  0
  4  5  2  0
  5  6  1  0
  6  7  1  0
  7  8  2  0
  2  9  1  0
  9 10  1  0
 10 11  2  0
 10 12  1  0
 12 13  2  0
 13 14  1  0
 14 15  1  0
 14 16  1  0
 16 17  2  0
 17 18  1  0
 18 19  2  0
 19 20  1  0
 19 21  1  0
 21 22  2  0
  8  4  1  0
 22 12  1  0
 22 16  1  0
M  END
>  <energy_score>  (5) 
-2.102867

>  <fragmenstein_runtime>  (5) 
nan

>  <HIPPO Pose ID>  (5) 
497885

>  <fragmenstein_error>  (5) 
nan

>  <alias>  (5) 
None

>  <orig_smiles>  (5) 
nan

>  <smiles>  (5) 
None

>  <inchikey>  (5) 
None

>  <HIPPO Compound ID>  (5) 
191887

>  <fragmenstein_mode>  (5) 
nan

>  <fragmenstein_outcome>  (5) 
nan

>  <distance_score>  (5) 
0.710331

>  <subsites>  (5) 
None

>  <scratch_subdir>  (5) 
nan

>  <inspiration_score>  (5) 
None

>  <name>  (5) 
P497885

>  <ref_mols>  (5) 
A2290a,A3436a

>  <ref_pdb>  (5) 
A2290a

>  <exports>  (5) 
['/opt/xchem-fragalysis-2/maxwin/openbind-hippo/a71ev2a/cycle_01/syndirella/elabs/openbind_a71ev2a_c1_elab_chemspace_filtered.sdf', '/opt/xchem-fragalysis-2/maxwin/openbind-hippo/a71ev2a/cycle_01/syndirella/elabs/ASAP-0031281-001_elabs.sdf']

>  <Energy>  (5) 
nan

>  <tags>  (5) 
openbind_a71ev2a_c1_elabs_filtered

>  <GNINA pK>  (5) 
nan

$$$$
P497886
     RDKit          3D

 22 24  0  0  0  0  0  0  0  0999 V2000
   12.8131   14.4570   21.7113 C   0  0  0  0  0  0  0  0  0  0  0  0
   11.3167   14.6094   21.7691 C   0  0  1  0  0  0  0  0  0  0  0  0
   10.7284   14.6531   20.3572 C   0  0  0  0  0  0  0  0  0  0  0  0
    9.9176   15.8538   20.0666 C   0  0  0  0  0  0  0  0  0  0  0  0
    9.8229   16.5783   18.9024 C   0  0  0  0  0  0  0  0  0  0  0  0
    9.0175   17.6481   19.1247 O   0  0  0  0  0  0  0  0  0  0  0  0
    8.6802   17.5238   20.4362 C   0  0  0  0  0  0  0  0  0  0  0  0
    9.1309   16.4365   21.0206 N   0  0  0  0  0  0  0  0  0  0  0  0
   10.7750   13.4863   22.4980 N   0  0  0  0  0  0  0  0  0  0  0  0
   10.3092   13.3749   23.9513 C   0  0  0  0  0  0  0  0  0  0  0  0
   10.3566   14.1477   24.8209 O   0  0  0  0  0  0  0  0  0  0  0  0
    9.6628   12.0706   24.1086 C   0  0  0  0  0  0  0  0  0  0  0  0
   10.0066   11.0316   23.3294 N   0  0  0  0  0  0  0  0  0  0  0  0
    9.2393   10.0208   23.7647 N   0  0  0  0  0  0  0  0  0  0  0  0
    9.3846    8.7343   23.1274 C   0  0  0  0  0  0  0  0  0  0  0  0
    8.3634   10.3876   24.7589 C   0  0  0  0  0  0  0  0  0  0  0  0
    7.3821    9.6895   25.4672 C   0  0  0  0  0  0  0  0  0  0  0  0
    6.6273   10.3901   26.4113 C   0  0  0  0  0  0  0  0  0  0  0  0
    6.8548   11.7407   26.6341 C   0  0  0  0  0  0  0  0  0  0  0  0
    6.1237   12.3814   27.5560 F   0  0  0  0  0  0  0  0  0  0  0  0
    7.8386   12.4366   25.9395 C   0  0  0  0  0  0  0  0  0  0  0  0
    8.6094   11.7378   24.9925 C   0  0  0  0  0  0  0  0  0  0  0  0
  2  1  1  6
  2  3  1  0
  3  4  1  0
  4  5  2  0
  5  6  1  0
  6  7  1  0
  7  8  2  0
  2  9  1  0
  9 10  1  0
 10 11  2  0
 10 12  1  0
 12 13  2  0
 13 14  1  0
 14 15  1  0
 14 16  1  0
 16 17  2  0
 17 18  1  0
 18 19  2  0
 19 20  1  0
 19 21  1  0
 21 22  2  0
  8  4  1  0
 22 12  1  0
 22 16  1  0
M  END
>  <energy_score>  (6) 
-35.719812

>  <fragmenstein_runtime>  (6) 
nan

>  <HIPPO Pose ID>  (6) 
497886

>  <fragmenstein_error>  (6) 
nan

>  <alias>  (6) 
None

>  <orig_smiles>  (6) 
nan

>  <smiles>  (6) 
None

>  <inchikey>  (6) 
None

>  <HIPPO Compound ID>  (6) 
191887

>  <fragmenstein_mode>  (6) 
nan

>  <fragmenstein_outcome>  (6) 
nan

>  <distance_score>  (6) 
0.84842

>  <subsites>  (6) 
None

>  <scratch_subdir>  (6) 
nan

>  <inspiration_score>  (6) 
None

>  <name>  (6) 
P497886

>  <ref_mols>  (6) 
A2290a,A3436a

>  <ref_pdb>  (6) 
A2290a

>  <exports>  (6) 
['/opt/xchem-fragalysis-2/maxwin/openbind-hippo/a71ev2a/cycle_01/syndirella/elabs/openbind_a71ev2a_c1_elab_chemspace_filtered.sdf', '/opt/xchem-fragalysis-2/maxwin/openbind-hippo/a71ev2a/cycle_01/syndirella/elabs/ASAP-0031281-001_elabs.sdf']

>  <Energy>  (6) 
nan

>  <tags>  (6) 
openbind_a71ev2a_c1_elabs_filtered

>  <GNINA pK>  (6) 
nan

$$$$
P497887
     RDKit          3D

 22 24  0  0  0  0  0  0  0  0999 V2000
   11.6966   14.4550   18.6093 C   0  0  0  0  0  0  0  0  0  0  0  0
   10.8338   15.0270   19.6373 C   0  0  0  0  0  0  0  0  0  0  0  0
    9.7565   15.7665   19.2307 O   0  0  0  0  0  0  0  0  0  0  0  0
    9.2965   16.3107   20.3849 C   0  0  0  0  0  0  0  0  0  0  0  0
    9.8905   15.8724   21.4616 N   0  0  0  0  0  0  0  0  0  0  0  0
   10.9664   15.1886   20.9932 C   0  0  0  0  0  0  0  0  0  0  0  0
   12.1433   14.9923   21.8619 C   0  0  0  0  0  0  0  0  0  0  0  0
   12.4684   13.5725   22.2064 C   0  0  0  0  0  0  0  0  0  0  0  0
   11.3850   12.8506   22.7595 N   0  0  0  0  0  0  0  0  0  0  0  0
   10.5988   13.0723   24.0543 C   0  0  0  0  0  0  0  0  0  0  0  0
   10.6633   13.9299   24.8400 O   0  0  0  0  0  0  0  0  0  0  0  0
    9.7039   11.9209   24.1764 C   0  0  0  0  0  0  0  0  0  0  0  0
    9.9426   10.8460   23.4069 N   0  0  0  0  0  0  0  0  0  0  0  0
    9.0864    9.9225   23.8366 N   0  0  0  0  0  0  0  0  0  0  0  0
    9.1635    8.6271   23.2140 C   0  0  0  0  0  0  0  0  0  0  0  0
    8.2419   10.3786   24.8188 C   0  0  0  0  0  0  0  0  0  0  0  0
    7.2082    9.7765   25.5388 C   0  0  0  0  0  0  0  0  0  0  0  0
    6.5128   10.5549   26.4683 C   0  0  0  0  0  0  0  0  0  0  0  0
    6.8471   11.8908   26.6695 C   0  0  0  0  0  0  0  0  0  0  0  0
    5.8874   12.9054   27.9449 Br  0  0  0  0  0  0  0  0  0  0  0  0
    7.8911   12.4884   25.9629 C   0  0  0  0  0  0  0  0  0  0  0  0
    8.5996   11.7110   25.0292 C   0  0  0  0  0  0  0  0  0  0  0  0
  1  2  1  0
  2  3  1  0
  3  4  1  0
  4  5  2  0
  5  6  1  0
  6  7  1  0
  7  8  1  0
  8  9  1  0
  9 10  1  0
 10 11  2  0
 10 12  1  0
 12 13  2  0
 13 14  1  0
 14 15  1  0
 14 16  1  0
 16 17  2  0
 17 18  1  0
 18 19  2  0
 19 20  1  0
 19 21  1  0
 21 22  2  0
  6  2  2  0
 22 12  1  0
 22 16  1  0
M  END
>  <energy_score>  (7) 
-15.168538

>  <fragmenstein_runtime>  (7) 
nan

>  <HIPPO Pose ID>  (7) 
497887

>  <fragmenstein_error>  (7) 
nan

>  <alias>  (7) 
None

>  <orig_smiles>  (7) 
nan

>  <smiles>  (7) 
None

>  <inchikey>  (7) 
None

>  <HIPPO Compound ID>  (7) 
289826

>  <fragmenstein_mode>  (7) 
nan

>  <fragmenstein_outcome>  (7) 
nan

>  <distance_score>  (7) 
0.510567

>  <subsites>  (7) 
None

>  <scratch_subdir>  (7) 
nan

>  <inspiration_score>  (7) 
None

>  <name>  (7) 
P497887

>  <ref_mols>  (7) 
A2290a,A3436a

>  <ref_pdb>  (7) 
A2290a

>  <exports>  (7) 
['/opt/xchem-fragalysis-2/maxwin/openbind-hippo/a71ev2a/cycle_01/bulkdock/openbind_a71ev2a_c1_elab_chemspace.sdf', '/opt/xchem-fragalysis-2/maxwin/openbind-hippo/a71ev2a/cycle_01/syndirella/elabs/openbind_a71ev2a_c1_elab_chemspace_filtered.sdf', '/opt/xchem-fragalysis-2/maxwin/openbind-hippo/a71ev2a/cycle_01/syndirella/elabs/ASAP-0031281-001_elabs.sdf']

>  <Energy>  (7) 
nan

>  <tags>  (7) 
openbind_a71ev2a_c1_elabs_filtered

>  <GNINA pK>  (7) 
nan

$$$$
P497888
     RDKit          3D

 22 24  0  0  0  0  0  0  0  0999 V2000
    8.5921   17.3952   20.7109 C   0  0  0  0  0  0  0  0  0  0  0  0
    9.5605   16.3121   20.4776 C   0  0  0  0  0  0  0  0  0  0  0  0
   10.3313   15.7087   21.3549 N   0  0  0  0  0  0  0  0  0  0  0  0
   11.1568   14.9273   20.5950 C   0  0  0  0  0  0  0  0  0  0  0  0
   12.3866   14.3293   21.1529 C   0  0  0  0  0  0  0  0  0  0  0  0
   12.3599   14.2073   22.6592 C   0  0  0  0  0  0  0  0  0  0  0  0
   11.4154   13.2465   23.1263 N   0  0  0  0  0  0  0  0  0  0  0  0
   10.4879   13.2743   24.3403 C   0  0  0  0  0  0  0  0  0  0  0  0
   10.3958   14.0509   25.2027 O   0  0  0  0  0  0  0  0  0  0  0  0
    9.6870   12.0456   24.3062 C   0  0  0  0  0  0  0  0  0  0  0  0
   10.0354   11.0248   23.5012 N   0  0  0  0  0  0  0  0  0  0  0  0
    9.1958   10.0350   23.8371 N   0  0  0  0  0  0  0  0  0  0  0  0
    9.3413    8.7669   23.1640 C   0  0  0  0  0  0  0  0  0  0  0  0
    8.2898   10.3937   24.8062 C   0  0  0  0  0  0  0  0  0  0  0  0
    7.2801    9.6950   25.4694 C   0  0  0  0  0  0  0  0  0  0  0  0
    6.5010   10.3834   26.4034 C   0  0  0  0  0  0  0  0  0  0  0  0
    6.7310   11.7302   26.6639 C   0  0  0  0  0  0  0  0  0  0  0  0
    5.6552   12.6266   27.9344 Br  0  0  0  0  0  0  0  0  0  0  0  0
    7.7569   12.4218   26.0213 C   0  0  0  0  0  0  0  0  0  0  0  0
    8.5512   11.7313   25.0867 C   0  0  0  0  0  0  0  0  0  0  0  0
   10.7571   14.9924   19.2863 C   0  0  0  0  0  0  0  0  0  0  0  0
    9.7261   15.8764   19.1965 O   0  0  0  0  0  0  0  0  0  0  0  0
  1  2  1  0
  2  3  2  0
  3  4  1  0
  4  5  1  0
  5  6  1  0
  6  7  1  0
  7  8  1  0
  8  9  2  0
  8 10  1  0
 10 11  2  0
 11 12  1  0
 12 13  1  0
 12 14  1  0
 14 15  2  0
 15 16  1  0
 16 17  2  0
 17 18  1  0
 17 19  1  0
 19 20  2  0
  4 21  2  0
 21 22  1  0
 22  2  1  0
 20 10  1  0
 20 14  1  0
M  END
>  <energy_score>  (8) 
-5.165477

>  <fragmenstein_runtime>  (8) 
nan

>  <HIPPO Pose ID>  (8) 
497888

>  <fragmenstein_error>  (8) 
nan

>  <alias>  (8) 
None

>  <orig_smiles>  (8) 
nan

>  <smiles>  (8) 
None

>  <inchikey>  (8) 
None

>  <HIPPO Compound ID>  (8) 
289827

>  <fragmenstein_mode>  (8) 
nan

>  <fragmenstein_outcome>  (8) 
nan

>  <distance_score>  (8) 
0.533051

>  <subsites>  (8) 
None

>  <scratch_subdir>  (8) 
nan

>  <inspiration_score>  (8) 
None

>  <name>  (8) 
P497888

>  <ref_mols>  (8) 
A2290a,A3436a

>  <ref_pdb>  (8) 
A2290a

>  <exports>  (8) 
['/opt/xchem-fragalysis-2/maxwin/openbind-hippo/a71ev2a/cycle_01/syndirella/elabs/openbind_a71ev2a_c1_elab_chemspace_filtered.sdf', '/opt/xchem-fragalysis-2/maxwin/openbind-hippo/a71ev2a/cycle_01/syndirella/elabs/ASAP-0031281-001_elabs.sdf']

>  <Energy>  (8) 
nan

>  <tags>  (8) 
openbind_a71ev2a_c1_elabs_filtered

>  <GNINA pK>  (8) 
nan

$$$$
P497889
     RDKit          3D

 22 24  0  0  0  0  0  0  0  0999 V2000
   12.6750   15.0027   22.0438 C   0  0  0  0  0  0  0  0  0  0  0  0
   11.9310   13.9879   21.2307 C   0  0  2  0  0  0  0  0  0  0  0  0
   11.2788   14.5417   19.9653 C   0  0  0  0  0  0  0  0  0  0  0  0
   10.2332   15.5788   20.0345 C   0  0  0  0  0  0  0  0  0  0  0  0
    9.8710   16.4317   19.0128 C   0  0  0  0  0  0  0  0  0  0  0  0
    9.0093   17.3505   19.5051 O   0  0  0  0  0  0  0  0  0  0  0  0
    8.8496   16.9651   20.7951 C   0  0  0  0  0  0  0  0  0  0  0  0
    9.5180   15.8864   21.1530 N   0  0  0  0  0  0  0  0  0  0  0  0
   11.1337   13.0921   22.0323 N   0  0  0  0  0  0  0  0  0  0  0  0
   10.4284   13.3165   23.3779 C   0  0  0  0  0  0  0  0  0  0  0  0
   10.4408   14.2359   24.0932 O   0  0  0  0  0  0  0  0  0  0  0  0
    9.6873   12.0911   23.7281 C   0  0  0  0  0  0  0  0  0  0  0  0
    9.9581   10.9295   23.1077 N   0  0  0  0  0  0  0  0  0  0  0  0
    9.2160   10.0235   23.7550 N   0  0  0  0  0  0  0  0  0  0  0  0
    9.4176    8.6328   23.4420 C   0  0  0  0  0  0  0  0  0  0  0  0
    8.3798   10.5603   24.7019 C   0  0  0  0  0  0  0  0  0  0  0  0
    7.4178    9.9947   25.5488 C   0  0  0  0  0  0  0  0  0  0  0  0
    6.7379   10.8460   26.4230 C   0  0  0  0  0  0  0  0  0  0  0  0
    7.0190   12.2096   26.4470 C   0  0  0  0  0  0  0  0  0  0  0  0
    6.0884   13.3260   27.6576 Br  0  0  0  0  0  0  0  0  0  0  0  0
    7.9821   12.7677   25.6020 C   0  0  0  0  0  0  0  0  0  0  0  0
    8.6717   11.9226   24.7114 C   0  0  0  0  0  0  0  0  0  0  0  0
  2  1  1  1
  2  3  1  0
  3  4  1  0
  4  5  2  0
  5  6  1  0
  6  7  1  0
  7  8  2  0
  2  9  1  0
  9 10  1  0
 10 11  2  0
 10 12  1  0
 12 13  2  0
 13 14  1  0
 14 15  1  0
 14 16  1  0
 16 17  2  0
 17 18  1  0
 18 19  2  0
 19 20  1  0
 19 21  1  0
 21 22  2  0
  8  4  1  0
 22 12  1  0
 22 16  1  0
M  END
>  <energy_score>  (9) 
-4.733075

>  <fragmenstein_runtime>  (9) 
nan

>  <HIPPO Pose ID>  (9) 
497889

>  <fragmenstein_error>  (9) 
nan

>  <alias>  (9) 
None

>  <orig_smiles>  (9) 
nan

>  <smiles>  (9) 
None

>  <inchikey>  (9) 
None

>  <HIPPO Compound ID>  (9) 
289828

>  <fragmenstein_mode>  (9) 
nan

>  <fragmenstein_outcome>  (9) 
nan

>  <distance_score>  (9) 
0.723725

>  <subsites>  (9) 
None

>  <scratch_subdir>  (9) 
nan

>  <inspiration_score>  (9) 
None

>  <name>  (9) 
P497889

>  <ref_mols>  (9) 
A2290a,A3436a

>  <ref_pdb>  (9) 
A2290a

>  <exports>  (9) 
['/opt/xchem-fragalysis-2/maxwin/openbind-hippo/a71ev2a/cycle_01/syndirella/elabs/openbind_a71ev2a_c1_elab_chemspace_filtered.sdf', '/opt/xchem-fragalysis-2/maxwin/openbind-hippo/a71ev2a/cycle_01/syndirella/elabs/ASAP-0031281-001_elabs.sdf']

>  <Energy>  (9) 
nan

>  <tags>  (9) 
openbind_a71ev2a_c1_elabs_filtered

>  <GNINA pK>  (9) 
nan

$$$$
P497890
     RDKit          3D

 22 24  0  0  0  0  0  0  0  0999 V2000
   13.0015   13.4959   23.5207 C   0  0  0  0  0  0  0  0  0  0  0  0
   11.8356   14.1677   22.8380 C   0  0  1  0  0  0  0  0  0  0  0  0
   12.0644   14.3181   21.3425 C   0  0  0  0  0  0  0  0  0  0  0  0
   10.9374   14.9814   20.6539 C   0  0  0  0  0  0  0  0  0  0  0  0
   10.6858   15.0849   19.3104 C   0  0  0  0  0  0  0  0  0  0  0  0
    9.6847   15.9916   19.1341 O   0  0  0  0  0  0  0  0  0  0  0  0
    9.3770   16.3862   20.3965 C   0  0  0  0  0  0  0  0  0  0  0  0
   10.0459   15.7644   21.3359 N   0  0  0  0  0  0  0  0  0  0  0  0
   10.7453   13.3379   23.2123 N   0  0  0  0  0  0  0  0  0  0  0  0
    9.8383   13.3869   24.4327 C   0  0  0  0  0  0  0  0  0  0  0  0
    9.7804   14.1598   25.2988 O   0  0  0  0  0  0  0  0  0  0  0  0
    9.0467   12.1645   24.4086 C   0  0  0  0  0  0  0  0  0  0  0  0
    9.4126   11.1383   23.6124 N   0  0  0  0  0  0  0  0  0  0  0  0
    8.7215   10.1020   24.0996 N   0  0  0  0  0  0  0  0  0  0  0  0
    9.0728    8.7765   23.6569 C   0  0  0  0  0  0  0  0  0  0  0  0
    7.8092   10.4580   25.0624 C   0  0  0  0  0  0  0  0  0  0  0  0
    6.8582    9.7380   25.7808 C   0  0  0  0  0  0  0  0  0  0  0  0
    6.1079   10.4143   26.7450 C   0  0  0  0  0  0  0  0  0  0  0  0
    6.3059   11.7710   26.9780 C   0  0  0  0  0  0  0  0  0  0  0  0
    5.2746   12.6449   28.3002 Br  0  0  0  0  0  0  0  0  0  0  0  0
    7.2549   12.4920   26.2593 C   0  0  0  0  0  0  0  0  0  0  0  0
    8.0007   11.8163   25.2791 C   0  0  0  0  0  0  0  0  0  0  0  0
  2  1  1  1
  2  3  1  0
  3  4  1  0
  4  5  2  0
  5  6  1  0
  6  7  1  0
  7  8  2  0
  2  9  1  0
  9 10  1  0
 10 11  2  0
 10 12  1  0
 12 13  2  0
 13 14  1  0
 14 15  1  0
 14 16  1  0
 16 17  2  0
 17 18  1  0
 18 19  2  0
 19 20  1  0
 19 21  1  0
 21 22  2  0
  8  4  1  0
 22 12  1  0
 22 16  1  0
M  END
>  <energy_score>  (10) 
-15.444263

>  <fragmenstein_runtime>  (10) 
nan

>  <HIPPO Pose ID>  (10) 
497890

>  <fragmenstein_error>  (10) 
nan

>  <alias>  (10) 
None

>  <orig_smiles>  (10) 
nan

>  <smiles>  (10) 
None

>  <inchikey>  (10) 
None

>  <HIPPO Compound ID>  (10) 
289828

>  <fragmenstein_mode>  (10) 
nan

>  <fragmenstein_outcome>  (10) 
nan

>  <distance_score>  (10) 
0.780241

>  <subsites>  (10) 
None

>  <scratch_subdir>  (10) 
nan

>  <inspiration_score>  (10) 
None

>  <name>  (10) 
P497890

>  <ref_mols>  (10) 
A2290a,A3436a

>  <ref_pdb>  (10) 
A2290a

>  <exports>  (10) 
['/opt/xchem-fragalysis-2/maxwin/openbind-hippo/a71ev2a/cycle_01/syndirella/elabs/openbind_a71ev2a_c1_elab_chemspace_filtered.sdf', '/opt/xchem-fragalysis-2/maxwin/openbind-hippo/a71ev2a/cycle_01/syndirella/elabs/ASAP-0031281-001_elabs.sdf']

>  <Energy>  (10) 
nan

>  <tags>  (10) 
openbind_a71ev2a_c1_elabs_filtered

>  <GNINA pK>  (10) 
nan

$$$$
P497891
     RDKit          3D

 23 25  0  0  0  0  0  0  0  0999 V2000
    8.6054   17.3435   20.7100 C   0  0  0  0  0  0  0  0  0  0  0  0
    9.5757   16.2450   20.5749 C   0  0  0  0  0  0  0  0  0  0  0  0
   10.2549   15.6439   21.5304 N   0  0  0  0  0  0  0  0  0  0  0  0
   11.1747   14.8970   20.8654 C   0  0  0  0  0  0  0  0  0  0  0  0
   12.3702   14.3010   21.4932 C   0  0  0  0  0  0  0  0  0  0  0  0
   12.2600   14.1653   22.9841 C   0  0  0  0  0  0  0  0  0  0  0  0
   11.2320   13.2669   23.3670 N   0  0  0  0  0  0  0  0  0  0  0  0
   10.3132   13.2732   24.5811 C   0  0  0  0  0  0  0  0  0  0  0  0
   10.1924   14.0567   25.4319 O   0  0  0  0  0  0  0  0  0  0  0  0
    9.5398   12.0350   24.5158 C   0  0  0  0  0  0  0  0  0  0  0  0
    9.9265   11.0369   23.6981 N   0  0  0  0  0  0  0  0  0  0  0  0
    9.0733   10.0395   23.9692 N   0  0  0  0  0  0  0  0  0  0  0  0
    9.2366    8.8006   23.2472 C   0  0  0  0  0  0  0  0  0  0  0  0
    8.1468   10.3678   24.9304 C   0  0  0  0  0  0  0  0  0  0  0  0
    7.1186    9.6564   25.5443 C   0  0  0  0  0  0  0  0  0  0  0  0
    6.3178   10.3157   26.4810 C   0  0  0  0  0  0  0  0  0  0  0  0
    6.5413   11.6521   26.7907 C   0  0  0  0  0  0  0  0  0  0  0  0
    5.4336   12.5103   28.0601 Br  0  0  0  0  0  0  0  0  0  0  0  0
    7.5811   12.3608   26.1946 C   0  0  0  0  0  0  0  0  0  0  0  0
    8.3958   11.6952   25.2610 C   0  0  0  0  0  0  0  0  0  0  0  0
   10.9269   14.9727   19.5255 C   0  0  0  0  0  0  0  0  0  0  0  0
   11.7063   14.4798   18.4030 C   0  0  0  0  0  0  0  0  0  0  0  0
    9.8854   15.8237   19.3133 O   0  0  0  0  0  0  0  0  0  0  0  0
  1  2  1  0
  2  3  2  0
  3  4  1  0
  4  5  1  0
  5  6  1  0
  6  7  1  0
  7  8  1  0
  8  9  2  0
  8 10  1  0
 10 11  2  0
 11 12  1  0
 12 13  1  0
 12 14  1  0
 14 15  2  0
 15 16  1  0
 16 17  2  0
 17 18  1  0
 17 19  1  0
 19 20  2  0
  4 21  2  0
 21 22  1  0
 21 23  1  0
 23  2  1  0
 20 10  1  0
 20 14  1  0
M  END
>  <energy_score>  (11) 
-12.48772

>  <fragmenstein_runtime>  (11) 
nan

>  <HIPPO Pose ID>  (11) 
497891

>  <fragmenstein_error>  (11) 
nan

>  <alias>  (11) 
None

>  <orig_smiles>  (11) 
nan

>  <smiles>  (11) 
None

>  <inchikey>  (11) 
None

>  <HIPPO Compound ID>  (11) 
289829

>  <fragmenstein_mode>  (11) 
nan

>  <fragmenstein_outcome>  (11) 
nan

>  <distance_score>  (11) 
0.713061

>  <subsites>  (11) 
None

>  <scratch_subdir>  (11) 
nan

>  <inspiration_score>  (11) 
None

>  <name>  (11) 
P497891

>  <ref_mols>  (11) 
A2290a,A3436a

>  <ref_pdb>  (11) 
A2290a

>  <exports>  (11) 
['/opt/xchem-fragalysis-2/maxwin/openbind-hippo/a71ev2a/cycle_01/syndirella/elabs/openbind_a71ev2a_c1_elab_chemspace_filtered.sdf', '/opt/xchem-fragalysis-2/maxwin/openbind-hippo/a71ev2a/cycle_01/syndirella/elabs/ASAP-0031281-001_elabs.sdf']

>  <Energy>  (11) 
nan

>  <tags>  (11) 
openbind_a71ev2a_c1_elabs_filtered

>  <GNINA pK>  (11) 
nan

$$$$
P497892
     RDKit          3D

 23 25  0  0  0  0  0  0  0  0999 V2000
    8.6050   17.3257   20.7332 C   0  0  0  0  0  0  0  0  0  0  0  0
    9.5712   16.2236   20.5957 C   0  0  0  0  0  0  0  0  0  0  0  0
   10.2438   15.6094   21.5489 N   0  0  0  0  0  0  0  0  0  0  0  0
   11.1660   14.8700   20.8787 C   0  0  0  0  0  0  0  0  0  0  0  0
   12.3673   14.2755   21.4954 C   0  0  0  0  0  0  0  0  0  0  0  0
   12.2994   14.1667   22.9912 C   0  0  0  0  0  0  0  0  0  0  0  0
   11.3485   13.2124   23.4347 N   0  0  0  0  0  0  0  0  0  0  0  0
   10.3295   13.2807   24.5668 C   0  0  0  0  0  0  0  0  0  0  0  0
   10.1513   14.0998   25.3735 O   0  0  0  0  0  0  0  0  0  0  0  0
    9.5407   12.0513   24.4904 C   0  0  0  0  0  0  0  0  0  0  0  0
    9.9128   11.0565   23.6635 N   0  0  0  0  0  0  0  0  0  0  0  0
    9.0706   10.0545   23.9491 N   0  0  0  0  0  0  0  0  0  0  0  0
    9.2418    8.8097   23.2387 C   0  0  0  0  0  0  0  0  0  0  0  0
    8.1481   10.3833   24.9146 C   0  0  0  0  0  0  0  0  0  0  0  0
    7.1263    9.6686   25.5393 C   0  0  0  0  0  0  0  0  0  0  0  0
    6.3361   10.3289   26.4830 C   0  0  0  0  0  0  0  0  0  0  0  0
    6.5656   11.6622   26.7868 C   0  0  0  0  0  0  0  0  0  0  0  0
    5.7987   12.2639   27.7063 F   0  0  0  0  0  0  0  0  0  0  0  0
    7.5930   12.3755   26.1832 C   0  0  0  0  0  0  0  0  0  0  0  0
    8.3981   11.7133   25.2403 C   0  0  0  0  0  0  0  0  0  0  0  0
   10.9231   14.9608   19.5383 C   0  0  0  0  0  0  0  0  0  0  0  0
   11.7044   14.4797   18.4117 C   0  0  0  0  0  0  0  0  0  0  0  0
    9.8842   15.8148   19.3312 O   0  0  0  0  0  0  0  0  0  0  0  0
  1  2  1  0
  2  3  2  0
  3  4  1  0
  4  5  1  0
  5  6  1  0
  6  7  1  0
  7  8  1  0
  8  9  2  0
  8 10  1  0
 10 11  2  0
 11 12  1  0
 12 13  1  0
 12 14  1  0
 14 15  2  0
 15 16  1  0
 16 17  2  0
 17 18  1  0
 17 19  1  0
 19 20  2  0
  4 21  2  0
 21 22  1  0
 21 23  1  0
 23  2  1  0
 20 10  1  0
 20 14  1  0
M  END
>  <energy_score>  (12) 
-10.072784

>  <fragmenstein_runtime>  (12) 
nan

>  <HIPPO Pose ID>  (12) 
497892

>  <fragmenstein_error>  (12) 
nan

>  <alias>  (12) 
None

>  <orig_smiles>  (12) 
nan

>  <smiles>  (12) 
None

>  <inchikey>  (12) 
None

>  <HIPPO Compound ID>  (12) 
289830

>  <fragmenstein_mode>  (12) 
nan

>  <fragmenstein_outcome>  (12) 
nan

>  <distance_score>  (12) 
0.714599

>  <subsites>  (12) 
None

>  <scratch_subdir>  (12) 
nan

>  <inspiration_score>  (12) 
None

>  <name>  (12) 
P497892

>  <ref_mols>  (12) 
A2290a,A3436a

>  <ref_pdb>  (12) 
A2290a

>  <exports>  (12) 
['/opt/xchem-fragalysis-2/maxwin/openbind-hippo/a71ev2a/cycle_01/syndirella/elabs/openbind_a71ev2a_c1_elab_chemspace_filtered.sdf', '/opt/xchem-fragalysis-2/maxwin/openbind-hippo/a71ev2a/cycle_01/syndirella/elabs/ASAP-0031281-001_elabs.sdf']

>  <Energy>  (12) 
nan

>  <tags>  (12) 
openbind_a71ev2a_c1_elabs_filtered

>  <GNINA pK>  (12) 
nan

$$$$
P497893
     RDKit          3D

 24 26  0  0  0  0  0  0  0  0999 V2000
   11.6941   14.5073   18.4373 C   0  0  0  0  0  0  0  0  0  0  0  0
   10.8971   14.9685   19.5636 C   0  0  0  0  0  0  0  0  0  0  0  0
    9.8011   15.7490   19.3565 O   0  0  0  0  0  0  0  0  0  0  0  0
    9.4267   16.0893   20.6188 C   0  0  0  0  0  0  0  0  0  0  0  0
   10.1434   15.5407   21.5744 N   0  0  0  0  0  0  0  0  0  0  0  0
   11.1292   14.8790   20.9064 C   0  0  0  0  0  0  0  0  0  0  0  0
   12.3307   14.2949   21.5371 C   0  0  0  0  0  0  0  0  0  0  0  0
   12.2200   14.1420   23.0275 C   0  0  0  0  0  0  0  0  0  0  0  0
   11.1750   13.2616   23.4112 N   0  0  0  0  0  0  0  0  0  0  0  0
   10.2332   13.3044   24.6072 C   0  0  0  0  0  0  0  0  0  0  0  0
   10.1040   14.1083   25.4374 O   0  0  0  0  0  0  0  0  0  0  0  0
    9.4393   12.0782   24.5634 C   0  0  0  0  0  0  0  0  0  0  0  0
    9.8144   11.0479   23.7820 N   0  0  0  0  0  0  0  0  0  0  0  0
    8.9632   10.0675   24.1078 N   0  0  0  0  0  0  0  0  0  0  0  0
    9.1885    8.7506   23.5680 C   0  0  0  0  0  0  0  0  0  0  0  0
    8.0131   10.4483   25.0256 C   0  0  0  0  0  0  0  0  0  0  0  0
    6.9624    9.7641   25.6378 C   0  0  0  0  0  0  0  0  0  0  0  0
    6.1420   10.4682   26.5205 C   0  0  0  0  0  0  0  0  0  0  0  0
    6.3817   11.8195   26.7794 C   0  0  0  0  0  0  0  0  0  0  0  0
    5.5000   12.5331   27.7022 N   0  0  0  0  0  0  0  0  0  0  0  0
    5.9792   13.4905   28.3259 O   0  0  0  0  0  0  0  0  0  0  0  0
    4.3408   12.1112   27.8318 O   0  0  0  0  0  0  0  0  0  0  0  0
    7.4567   12.4983   26.1959 C   0  0  0  0  0  0  0  0  0  0  0  0
    8.2767   11.7843   25.3044 C   0  0  0  0  0  0  0  0  0  0  0  0
  1  2  1  0
  2  3  1  0
  3  4  1  0
  4  5  2  0
  5  6  1  0
  6  7  1  0
  7  8  1  0
  8  9  1  0
  9 10  1  0
 10 11  2  0
 10 12  1  0
 12 13  2  0
 13 14  1  0
 14 15  1  0
 14 16  1  0
 16 17  2  0
 17 18  1  0
 18 19  2  0
 19 20  1  0
 20 21  2  0
 20 22  1  0
 19 23  1  0
 23 24  2  0
  6  2  2  0
 24 12  1  0
 24 16  1  0
M  CHG  2  20   1  22  -1
M  END
>  <energy_score>  (13) 
-27.919868

>  <fragmenstein_runtime>  (13) 
nan

>  <HIPPO Pose ID>  (13) 
497893

>  <fragmenstein_error>  (13) 
nan

>  <alias>  (13) 
None

>  <orig_smiles>  (13) 
nan

>  <smiles>  (13) 
None

>  <inchikey>  (13) 
None

>  <HIPPO Compound ID>  (13) 
289831

>  <fragmenstein_mode>  (13) 
nan

>  <fragmenstein_outcome>  (13) 
nan

>  <distance_score>  (13) 
0.779307

>  <subsites>  (13) 
None

>  <scratch_subdir>  (13) 
nan

>  <inspiration_score>  (13) 
None

>  <name>  (13) 
P497893

>  <ref_mols>  (13) 
A2290a,A3436a

>  <ref_pdb>  (13) 
A2290a

>  <exports>  (13) 
['/opt/xchem-fragalysis-2/maxwin/openbind-hippo/a71ev2a/cycle_01/syndirella/elabs/openbind_a71ev2a_c1_elab_chemspace_filtered.sdf', '/opt/xchem-fragalysis-2/maxwin/openbind-hippo/a71ev2a/cycle_01/syndirella/elabs/ASAP-0031281-001_elabs.sdf']

>  <Energy>  (13) 
nan

>  <tags>  (13) 
openbind_a71ev2a_c1_elabs_filtered

>  <GNINA pK>  (13) 
nan

$$$$
P497894
     RDKit          3D

 24 26  0  0  0  0  0  0  0  0999 V2000
   12.6543   14.9827   22.0735 C   0  0  0  0  0  0  0  0  0  0  0  0
   11.9054   13.9815   21.2474 C   0  0  2  0  0  0  0  0  0  0  0  0
   11.2944   14.5469   19.9660 C   0  0  0  0  0  0  0  0  0  0  0  0
   10.2404   15.5790   20.0261 C   0  0  0  0  0  0  0  0  0  0  0  0
    9.8778   16.4290   19.0022 C   0  0  0  0  0  0  0  0  0  0  0  0
    9.0140   17.3482   19.4909 O   0  0  0  0  0  0  0  0  0  0  0  0
    8.8556   16.9685   20.7830 C   0  0  0  0  0  0  0  0  0  0  0  0
    9.5250   15.8921   21.1441 N   0  0  0  0  0  0  0  0  0  0  0  0
   11.0474   13.1184   22.0184 N   0  0  0  0  0  0  0  0  0  0  0  0
   10.4363   13.3067   23.4142 C   0  0  0  0  0  0  0  0  0  0  0  0
   10.4649   14.2222   24.1342 O   0  0  0  0  0  0  0  0  0  0  0  0
    9.7017   12.0809   23.7675 C   0  0  0  0  0  0  0  0  0  0  0  0
    9.9838   10.9201   23.1538 N   0  0  0  0  0  0  0  0  0  0  0  0
    9.2165   10.0168   23.7738 N   0  0  0  0  0  0  0  0  0  0  0  0
    9.4027    8.6273   23.4462 C   0  0  0  0  0  0  0  0  0  0  0  0
    8.3658   10.5553   24.7084 C   0  0  0  0  0  0  0  0  0  0  0  0
    7.3785    9.9884   25.5258 C   0  0  0  0  0  0  0  0  0  0  0  0
    6.6635   10.8385   26.3717 C   0  0  0  0  0  0  0  0  0  0  0  0
    6.9483   12.2075   26.3977 C   0  0  0  0  0  0  0  0  0  0  0  0
    6.1987   13.0736   27.3084 N   0  0  0  0  0  0  0  0  0  0  0  0
    6.7489   14.1188   27.6841 O   0  0  0  0  0  0  0  0  0  0  0  0
    5.0841   12.6841   27.6875 O   0  0  0  0  0  0  0  0  0  0  0  0
    7.9516   12.7689   25.5924 C   0  0  0  0  0  0  0  0  0  0  0  0
    8.6642   11.9166   24.7274 C   0  0  0  0  0  0  0  0  0  0  0  0
  2  1  1  1
  2  3  1  0
  3  4  1  0
  4  5  2  0
  5  6  1  0
  6  7  1  0
  7  8  2  0
  2  9  1  0
  9 10  1  0
 10 11  2  0
 10 12  1  0
 12 13  2  0
 13 14  1  0
 14 15  1  0
 14 16  1  0
 16 17  2  0
 17 18  1  0
 18 19  2  0
 19 20  1  0
 20 21  2  0
 20 22  1  0
 19 23  1  0
 23 24  2  0
  8  4  1  0
 24 12  1  0
 24 16  1  0
M  CHG  2  20   1  22  -1
M  END
>  <energy_score>  (14) 
-20.190989

>  <fragmenstein_runtime>  (14) 
nan

>  <HIPPO Pose ID>  (14) 
497894

>  <fragmenstein_error>  (14) 
nan

>  <alias>  (14) 
None

>  <orig_smiles>  (14) 
nan

>  <smiles>  (14) 
None

>  <inchikey>  (14) 
None

>  <HIPPO Compound ID>  (14) 
289832

>  <fragmenstein_mode>  (14) 
nan

>  <fragmenstein_outcome>  (14) 
nan

>  <distance_score>  (14) 
0.717993

>  <subsites>  (14) 
None

>  <scratch_subdir>  (14) 
nan

>  <inspiration_score>  (14) 
None

>  <name>  (14) 
P497894

>  <ref_mols>  (14) 
A2290a,A3436a

>  <ref_pdb>  (14) 
A2290a

>  <exports>  (14) 
['/opt/xchem-fragalysis-2/maxwin/openbind-hippo/a71ev2a/cycle_01/bulkdock/openbind_a71ev2a_c1_elab_chemspace.sdf', '/opt/xchem-fragalysis-2/maxwin/openbind-hippo/a71ev2a/cycle_01/syndirella/elabs/openbind_a71ev2a_c1_elab_chemspace_filtered.sdf', '/opt/xchem-fragalysis-2/maxwin/openbind-hippo/a71ev2a/cycle_01/syndirella/elabs/ASAP-0031281-001_elabs.sdf']

>  <Energy>  (14) 
nan

>  <tags>  (14) 
openbind_a71ev2a_c1_elabs_filtered

>  <GNINA pK>  (14) 
nan

$$$$
P497895
     RDKit          3D

 24 26  0  0  0  0  0  0  0  0999 V2000
   12.7903   14.3425   21.8097 C   0  0  0  0  0  0  0  0  0  0  0  0
   11.3084   14.6093   21.7830 C   0  0  1  0  0  0  0  0  0  0  0  0
   10.8063   14.6887   20.3397 C   0  0  0  0  0  0  0  0  0  0  0  0
    9.9420   15.8552   20.0570 C   0  0  0  0  0  0  0  0  0  0  0  0
    9.8211   16.5809   18.8954 C   0  0  0  0  0  0  0  0  0  0  0  0
    9.0037   17.6386   19.1310 O   0  0  0  0  0  0  0  0  0  0  0  0
    8.6826   17.5038   20.4454 C   0  0  0  0  0  0  0  0  0  0  0  0
    9.1530   16.4197   21.0200 N   0  0  0  0  0  0  0  0  0  0  0  0
   10.6522   13.5291   22.4812 N   0  0  0  0  0  0  0  0  0  0  0  0
   10.2610   13.3891   23.9530 C   0  0  0  0  0  0  0  0  0  0  0  0
   10.3336   14.1517   24.8296 O   0  0  0  0  0  0  0  0  0  0  0  0
    9.6365   12.0765   24.1155 C   0  0  0  0  0  0  0  0  0  0  0  0
   10.0057   11.0393   23.3468 N   0  0  0  0  0  0  0  0  0  0  0  0
    9.2464   10.0196   23.7743 N   0  0  0  0  0  0  0  0  0  0  0  0
    9.4031    8.7370   23.1302 C   0  0  0  0  0  0  0  0  0  0  0  0
    8.3519   10.3807   24.7553 C   0  0  0  0  0  0  0  0  0  0  0  0
    7.3688    9.6695   25.4465 C   0  0  0  0  0  0  0  0  0  0  0  0
    6.5633   10.3617   26.3536 C   0  0  0  0  0  0  0  0  0  0  0  0
    6.7599   11.7284   26.5645 C   0  0  0  0  0  0  0  0  0  0  0  0
    5.8979   12.4311   27.5116 N   0  0  0  0  0  0  0  0  0  0  0  0
    6.3882   13.3892   28.1253 O   0  0  0  0  0  0  0  0  0  0  0  0
    4.7457   11.9998   27.6674 O   0  0  0  0  0  0  0  0  0  0  0  0
    7.7712   12.4370   25.9039 C   0  0  0  0  0  0  0  0  0  0  0  0
    8.5738   11.7355   24.9842 C   0  0  0  0  0  0  0  0  0  0  0  0
  2  1  1  6
  2  3  1  0
  3  4  1  0
  4  5  2  0
  5  6  1  0
  6  7  1  0
  7  8  2  0
  2  9  1  0
  9 10  1  0
 10 11  2  0
 10 12  1  0
 12 13  2  0
 13 14  1  0
 14 15  1  0
 14 16  1  0
 16 17  2  0
 17 18  1  0
 18 19  2  0
 19 20  1  0
 20 21  2  0
 20 22  1  0
 19 23  1  0
 23 24  2  0
  8  4  1  0
 24 12  1  0
 24 16  1  0
M  CHG  2  20   1  22  -1
M  END
>  <energy_score>  (15) 
-34.801689

>  <fragmenstein_runtime>  (15) 
nan

>  <HIPPO Pose ID>  (15) 
497895

>  <fragmenstein_error>  (15) 
nan

>  <alias>  (15) 
None

>  <orig_smiles>  (15) 
nan

>  <smiles>  (15) 
None

>  <inchikey>  (15) 
None

>  <HIPPO Compound ID>  (15) 
289832

>  <fragmenstein_mode>  (15) 
nan

>  <fragmenstein_outcome>  (15) 
nan

>  <distance_score>  (15) 
0.847505

>  <subsites>  (15) 
None

>  <scratch_subdir>  (15) 
nan

>  <inspiration_score>  (15) 
None

>  <name>  (15) 
P497895

>  <ref_mols>  (15) 
A2290a,A3436a

>  <ref_pdb>  (15) 
A2290a

>  <exports>  (15) 
['/opt/xchem-fragalysis-2/maxwin/openbind-hippo/a71ev2a/cycle_01/syndirella/elabs/openbind_a71ev2a_c1_elab_chemspace_filtered.sdf', '/opt/xchem-fragalysis-2/maxwin/openbind-hippo/a71ev2a/cycle_01/syndirella/elabs/ASAP-0031281-001_elabs.sdf']

>  <Energy>  (15) 
nan

>  <tags>  (15) 
openbind_a71ev2a_c1_elabs_filtered

>  <GNINA pK>  (15) 
nan

$$$$
P497896
     RDKit          3D

 24 26  0  0  0  0  0  0  0  0999 V2000
    8.5920   17.3862   20.7189 C   0  0  0  0  0  0  0  0  0  0  0  0
    9.5597   16.3024   20.4845 C   0  0  0  0  0  0  0  0  0  0  0  0
   10.3282   15.6938   21.3610 N   0  0  0  0  0  0  0  0  0  0  0  0
   11.1581   14.9199   20.5982 C   0  0  0  0  0  0  0  0  0  0  0  0
   12.3906   14.3255   21.1536 C   0  0  0  0  0  0  0  0  0  0  0  0
   12.3743   14.2119   22.6611 C   0  0  0  0  0  0  0  0  0  0  0  0
   11.4527   13.2355   23.1443 N   0  0  0  0  0  0  0  0  0  0  0  0
   10.5062   13.2707   24.3434 C   0  0  0  0  0  0  0  0  0  0  0  0
   10.3765   14.0698   25.1798 O   0  0  0  0  0  0  0  0  0  0  0  0
    9.7026   12.0438   24.3095 C   0  0  0  0  0  0  0  0  0  0  0  0
   10.0536   11.0159   23.5162 N   0  0  0  0  0  0  0  0  0  0  0  0
    9.2014   10.0352   23.8437 N   0  0  0  0  0  0  0  0  0  0  0  0
    9.3399    8.7672   23.1692 C   0  0  0  0  0  0  0  0  0  0  0  0
    8.2851   10.4047   24.7998 C   0  0  0  0  0  0  0  0  0  0  0  0
    7.2585    9.7130   25.4462 C   0  0  0  0  0  0  0  0  0  0  0  0
    6.4474   10.4137   26.3417 C   0  0  0  0  0  0  0  0  0  0  0  0
    6.6787   11.7692   26.5872 C   0  0  0  0  0  0  0  0  0  0  0  0
    5.8136   12.4793   27.5289 N   0  0  0  0  0  0  0  0  0  0  0  0
    6.2949   13.4540   28.1234 O   0  0  0  0  0  0  0  0  0  0  0  0
    4.6694   12.0348   27.7065 O   0  0  0  0  0  0  0  0  0  0  0  0
    7.7383   12.4530   25.9786 C   0  0  0  0  0  0  0  0  0  0  0  0
    8.5495   11.7441   25.0722 C   0  0  0  0  0  0  0  0  0  0  0  0
   10.7606   14.9904   19.2890 C   0  0  0  0  0  0  0  0  0  0  0  0
    9.7291   15.8737   19.2015 O   0  0  0  0  0  0  0  0  0  0  0  0
  1  2  1  0
  2  3  2  0
  3  4  1  0
  4  5  1  0
  5  6  1  0
  6  7  1  0
  7  8  1  0
  8  9  2  0
  8 10  1  0
 10 11  2  0
 11 12  1  0
 12 13  1  0
 12 14  1  0
 14 15  2  0
 15 16  1  0
 16 17  2  0
 17 18  1  0
 18 19  2  0
 18 20  1  0
 17 21  1  0
 21 22  2  0
  4 23  2  0
 23 24  1  0
 24  2  1  0
 22 10  1  0
 22 14  1  0
M  CHG  2  18   1  20  -1
M  END
>  <energy_score>  (16) 
-16.222605

>  <fragmenstein_runtime>  (16) 
nan

>  <HIPPO Pose ID>  (16) 
497896

>  <fragmenstein_error>  (16) 
nan

>  <alias>  (16) 
None

>  <orig_smiles>  (16) 
nan

>  <smiles>  (16) 
None

>  <inchikey>  (16) 
None

>  <HIPPO Compound ID>  (16) 
289833

>  <fragmenstein_mode>  (16) 
nan

>  <fragmenstein_outcome>  (16) 
nan

>  <distance_score>  (16) 
0.533828

>  <subsites>  (16) 
None

>  <scratch_subdir>  (16) 
nan

>  <inspiration_score>  (16) 
None

>  <name>  (16) 
P497896

>  <ref_mols>  (16) 
A2290a,A3436a

>  <ref_pdb>  (16) 
A2290a

>  <exports>  (16) 
['/opt/xchem-fragalysis-2/maxwin/openbind-hippo/a71ev2a/cycle_01/syndirella/elabs/openbind_a71ev2a_c1_elab_chemspace_filtered.sdf', '/opt/xchem-fragalysis-2/maxwin/openbind-hippo/a71ev2a/cycle_01/syndirella/elabs/ASAP-0031281-001_elabs.sdf']

>  <Energy>  (16) 
nan

>  <tags>  (16) 
openbind_a71ev2a_c1_elabs_filtered

>  <GNINA pK>  (16) 
nan

$$$$
P497897
     RDKit          3D

 24 26  0  0  0  0  0  0  0  0999 V2000
    8.5864   17.4086   20.6937 C   0  0  0  0  0  0  0  0  0  0  0  0
    9.5600   16.3313   20.4570 C   0  0  0  0  0  0  0  0  0  0  0  0
   10.3473   15.7464   21.3307 N   0  0  0  0  0  0  0  0  0  0  0  0
   11.1685   14.9601   20.5708 C   0  0  0  0  0  0  0  0  0  0  0  0
   12.4080   14.3785   21.1259 C   0  0  0  0  0  0  0  0  0  0  0  0
   12.3784   14.2782   22.6330 C   0  0  0  0  0  0  0  0  0  0  0  0
   11.4039   13.3416   23.0784 N   0  0  0  0  0  0  0  0  0  0  0  0
   10.5729   13.3068   24.3590 C   0  0  0  0  0  0  0  0  0  0  0  0
   10.4909   14.0776   25.2271 O   0  0  0  0  0  0  0  0  0  0  0  0
    9.8229   12.0504   24.3267 C   0  0  0  0  0  0  0  0  0  0  0  0
   10.2334   11.0596   23.5177 N   0  0  0  0  0  0  0  0  0  0  0  0
    9.4014   10.0257   23.7819 N   0  0  0  0  0  0  0  0  0  0  0  0
    9.5527    8.7768   23.0201 C   0  0  0  0  0  0  0  0  0  0  0  0
    9.9892    9.0111   21.7595 F   0  0  0  0  0  0  0  0  0  0  0  0
    8.3836    8.1179   22.9289 F   0  0  0  0  0  0  0  0  0  0  0  0
   10.4493    7.9244   23.5661 F   0  0  0  0  0  0  0  0  0  0  0  0
    8.4613   10.3478   24.7449 C   0  0  0  0  0  0  0  0  0  0  0  0
    7.4398    9.6225   25.3608 C   0  0  0  0  0  0  0  0  0  0  0  0
    6.6140   10.2772   26.2805 C   0  0  0  0  0  0  0  0  0  0  0  0
    6.8026   11.6208   26.5833 C   0  0  0  0  0  0  0  0  0  0  0  0
    7.8400   12.3371   25.9872 C   0  0  0  0  0  0  0  0  0  0  0  0
    8.6830   11.6846   25.0688 C   0  0  0  0  0  0  0  0  0  0  0  0
   10.7509   15.0037   19.2677 C   0  0  0  0  0  0  0  0  0  0  0  0
    9.7135   15.8809   19.1792 O   0  0  0  0  0  0  0  0  0  0  0  0
  1  2  1  0
  2  3  2  0
  3  4  1  0
  4  5  1  0
  5  6  1  0
  6  7  1  0
  7  8  1  0
  8  9  2  0
  8 10  1  0
 10 11  2  0
 11 12  1  0
 12 13  1  0
 13 14  1  0
 13 15  1  0
 13 16  1  0
 12 17  1  0
 17 18  2  0
 18 19  1  0
 19 20  2  0
 20 21  1  0
 21 22  2  0
  4 23  2  0
 23 24  1  0
 24  2  1  0
 22 10  1  0
 22 17  1  0
M  END
>  <energy_score>  (17) 
-34.305412

>  <fragmenstein_runtime>  (17) 
nan

>  <HIPPO Pose ID>  (17) 
497897

>  <fragmenstein_error>  (17) 
nan

>  <alias>  (17) 
None

>  <orig_smiles>  (17) 
nan

>  <smiles>  (17) 
None

>  <inchikey>  (17) 
None

>  <HIPPO Compound ID>  (17) 
289834

>  <fragmenstein_mode>  (17) 
nan

>  <fragmenstein_outcome>  (17) 
nan

>  <distance_score>  (17) 
0.541163

>  <subsites>  (17) 
None

>  <scratch_subdir>  (17) 
nan

>  <inspiration_score>  (17) 
None

>  <name>  (17) 
P497897

>  <ref_mols>  (17) 
A2290a,A3436a

>  <ref_pdb>  (17) 
A2290a

>  <exports>  (17) 
['/opt/xchem-fragalysis-2/maxwin/openbind-hippo/a71ev2a/cycle_01/bulkdock/openbind_a71ev2a_c1_elab_chemspace.sdf', '/opt/xchem-fragalysis-2/maxwin/openbind-hippo/a71ev2a/cycle_01/syndirella/elabs/openbind_a71ev2a_c1_elab_chemspace_filtered.sdf', '/opt/xchem-fragalysis-2/maxwin/openbind-hippo/a71ev2a/cycle_01/syndirella/elabs/ASAP-0031281-001_elabs.sdf']

>  <Energy>  (17) 
nan

>  <tags>  (17) 
openbind_a71ev2a_c1_elabs_filtered

>  <GNINA pK>  (17) 
nan

$$$$
P497898
     RDKit          3D

 24 26  0  0  0  0  0  0  0  0999 V2000
   12.6894   15.0479   21.9728 C   0  0  0  0  0  0  0  0  0  0  0  0
   11.9265   14.0377   21.1718 C   0  0  2  0  0  0  0  0  0  0  0  0
   11.2990   14.5786   19.8890 C   0  0  0  0  0  0  0  0  0  0  0  0
   10.2397   15.6080   19.9667 C   0  0  0  0  0  0  0  0  0  0  0  0
    9.8637   16.4676   18.9562 C   0  0  0  0  0  0  0  0  0  0  0  0
    9.0023   17.3793   19.4639 O   0  0  0  0  0  0  0  0  0  0  0  0
    8.8644   16.9920   20.7564 C   0  0  0  0  0  0  0  0  0  0  0  0
    9.5439   15.9172   21.1011 N   0  0  0  0  0  0  0  0  0  0  0  0
   11.0402   13.2207   21.9566 N   0  0  0  0  0  0  0  0  0  0  0  0
   10.5597   13.3773   23.4064 C   0  0  0  0  0  0  0  0  0  0  0  0
   10.7428   14.2342   24.1750 O   0  0  0  0  0  0  0  0  0  0  0  0
    9.7746   12.1827   23.7471 C   0  0  0  0  0  0  0  0  0  0  0  0
    9.9982   11.0332   23.0906 N   0  0  0  0  0  0  0  0  0  0  0  0
    9.2456   10.1186   23.7398 N   0  0  0  0  0  0  0  0  0  0  0  0
    9.4849    8.6907   23.5244 C   0  0  0  0  0  0  0  0  0  0  0  0
    9.0665    8.2395   22.3291 F   0  0  0  0  0  0  0  0  0  0  0  0
   10.8027    8.3851   23.6061 F   0  0  0  0  0  0  0  0  0  0  0  0
    8.8219    7.9858   24.4664 F   0  0  0  0  0  0  0  0  0  0  0  0
    8.4148   10.6822   24.6926 C   0  0  0  0  0  0  0  0  0  0  0  0
    7.4293   10.1483   25.5387 C   0  0  0  0  0  0  0  0  0  0  0  0
    6.7762   11.0167   26.4165 C   0  0  0  0  0  0  0  0  0  0  0  0
    7.1020   12.3686   26.4598 C   0  0  0  0  0  0  0  0  0  0  0  0
    8.0938   12.8897   25.6229 C   0  0  0  0  0  0  0  0  0  0  0  0
    8.7569   12.0328   24.7246 C   0  0  0  0  0  0  0  0  0  0  0  0
  2  1  1  1
  2  3  1  0
  3  4  1  0
  4  5  2  0
  5  6  1  0
  6  7  1  0
  7  8  2  0
  2  9  1  0
  9 10  1  0
 10 11  2  0
 10 12  1  0
 12 13  2  0
 13 14  1  0
 14 15  1  0
 15 16  1  0
 15 17  1  0
 15 18  1  0
 14 19  1  0
 19 20  2  0
 20 21  1  0
 21 22  2  0
 22 23  1  0
 23 24  2  0
  8  4  1  0
 24 12  1  0
 24 19  1  0
M  END
>  <energy_score>  (18) 
-4.760028

>  <fragmenstein_runtime>  (18) 
nan

>  <HIPPO Pose ID>  (18) 
497898

>  <fragmenstein_error>  (18) 
nan

>  <alias>  (18) 
None

>  <orig_smiles>  (18) 
nan

>  <smiles>  (18) 
None

>  <inchikey>  (18) 
None

>  <HIPPO Compound ID>  (18) 
289835

>  <fragmenstein_mode>  (18) 
nan

>  <fragmenstein_outcome>  (18) 
nan

>  <distance_score>  (18) 
0.758775

>  <subsites>  (18) 
None

>  <scratch_subdir>  (18) 
nan

>  <inspiration_score>  (18) 
None

>  <name>  (18) 
P497898

>  <ref_mols>  (18) 
A2290a,A3436a

>  <ref_pdb>  (18) 
A2290a

>  <exports>  (18) 
['/opt/xchem-fragalysis-2/maxwin/openbind-hippo/a71ev2a/cycle_01/syndirella/elabs/openbind_a71ev2a_c1_elab_chemspace_filtered.sdf', '/opt/xchem-fragalysis-2/maxwin/openbind-hippo/a71ev2a/cycle_01/syndirella/elabs/ASAP-0031281-001_elabs.sdf']

>  <Energy>  (18) 
nan

>  <tags>  (18) 
openbind_a71ev2a_c1_elabs_filtered

>  <GNINA pK>  (18) 
nan

$$$$
P497899
     RDKit          3D

 24 26  0  0  0  0  0  0  0  0999 V2000
   13.0627   13.6498   23.3577 C   0  0  0  0  0  0  0  0  0  0  0  0
   11.8635   14.3169   22.7427 C   0  0  1  0  0  0  0  0  0  0  0  0
   12.0397   14.4470   21.2424 C   0  0  0  0  0  0  0  0  0  0  0  0
   10.8790   15.0805   20.5899 C   0  0  0  0  0  0  0  0  0  0  0  0
   10.6083   15.1828   19.2522 C   0  0  0  0  0  0  0  0  0  0  0  0
    9.6169   16.0998   19.0881 O   0  0  0  0  0  0  0  0  0  0  0  0
    9.3214   16.4874   20.3569 C   0  0  0  0  0  0  0  0  0  0  0  0
    9.9955   15.8571   21.2864 N   0  0  0  0  0  0  0  0  0  0  0  0
   10.8345   13.4315   23.1294 N   0  0  0  0  0  0  0  0  0  0  0  0
    9.9586   13.4156   24.3726 C   0  0  0  0  0  0  0  0  0  0  0  0
    9.8830   14.1720   25.2517 O   0  0  0  0  0  0  0  0  0  0  0  0
    9.2531   12.1490   24.3085 C   0  0  0  0  0  0  0  0  0  0  0  0
    9.6929   11.2211   23.4411 N   0  0  0  0  0  0  0  0  0  0  0  0
    9.0720   10.0846   23.8027 N   0  0  0  0  0  0  0  0  0  0  0  0
    9.4011    8.8503   23.0700 C   0  0  0  0  0  0  0  0  0  0  0  0
    9.9212    9.1120   21.8450 F   0  0  0  0  0  0  0  0  0  0  0  0
    8.3155    8.0814   22.8943 F   0  0  0  0  0  0  0  0  0  0  0  0
   10.3293    8.0962   23.6929 F   0  0  0  0  0  0  0  0  0  0  0  0
    8.1565   10.3111   24.8157 C   0  0  0  0  0  0  0  0  0  0  0  0
    7.2570    9.4925   25.4866 C   0  0  0  0  0  0  0  0  0  0  0  0
    6.4381   10.0527   26.4737 C   0  0  0  0  0  0  0  0  0  0  0  0
    6.5275   11.3989   26.8047 C   0  0  0  0  0  0  0  0  0  0  0  0
    7.4410   12.2181   26.1496 C   0  0  0  0  0  0  0  0  0  0  0  0
    8.2432   11.6633   25.1390 C   0  0  0  0  0  0  0  0  0  0  0  0
  2  1  1  1
  2  3  1  0
  3  4  1  0
  4  5  2  0
  5  6  1  0
  6  7  1  0
  7  8  2  0
  2  9  1  0
  9 10  1  0
 10 11  2  0
 10 12  1  0
 12 13  2  0
 13 14  1  0
 14 15  1  0
 15 16  1  0
 15 17  1  0
 15 18  1  0
 14 19  1  0
 19 20  2  0
 20 21  1  0
 21 22  2  0
 22 23  1  0
 23 24  2  0
  8  4  1  0
 24 12  1  0
 24 19  1  0
M  END
>  <energy_score>  (19) 
-1.705638

>  <fragmenstein_runtime>  (19) 
nan

>  <HIPPO Pose ID>  (19) 
497899

>  <fragmenstein_error>  (19) 
nan

>  <alias>  (19) 
None

>  <orig_smiles>  (19) 
nan

>  <smiles>  (19) 
None

>  <inchikey>  (19) 
None

>  <HIPPO Compound ID>  (19) 
289835

>  <fragmenstein_mode>  (19) 
nan

>  <fragmenstein_outcome>  (19) 
nan

>  <distance_score>  (19) 
0.642356

>  <subsites>  (19) 
None

>  <scratch_subdir>  (19) 
nan

>  <inspiration_score>  (19) 
None

>  <name>  (19) 
P497899

>  <ref_mols>  (19) 
A2290a,A3436a

>  <ref_pdb>  (19) 
A2290a

>  <exports>  (19) 
['/opt/xchem-fragalysis-2/maxwin/openbind-hippo/a71ev2a/cycle_01/bulkdock/openbind_a71ev2a_c1_elab_chemspace.sdf', '/opt/xchem-fragalysis-2/maxwin/openbind-hippo/a71ev2a/cycle_01/syndirella/elabs/openbind_a71ev2a_c1_elab_chemspace_filtered.sdf', '/opt/xchem-fragalysis-2/maxwin/openbind-hippo/a71ev2a/cycle_01/syndirella/elabs/ASAP-0031281-001_elabs.sdf']

>  <Energy>  (19) 
nan

>  <tags>  (19) 
openbind_a71ev2a_c1_elabs_filtered

>  <GNINA pK>  (19) 
nan

$$$$
P497900
     RDKit          3D

 24 26  0  0  0  0  0  0  0  0999 V2000
   11.6893   14.5073   18.4042 C   0  0  0  0  0  0  0  0  0  0  0  0
   10.8926   14.9814   19.5245 C   0  0  0  0  0  0  0  0  0  0  0  0
    9.7836   15.7431   19.3193 O   0  0  0  0  0  0  0  0  0  0  0  0
    9.4290   16.1095   20.5810 C   0  0  0  0  0  0  0  0  0  0  0  0
   10.1697   15.5920   21.5352 N   0  0  0  0  0  0  0  0  0  0  0  0
   11.1516   14.9304   20.8626 C   0  0  0  0  0  0  0  0  0  0  0  0
   12.3857   14.3973   21.4718 C   0  0  0  0  0  0  0  0  0  0  0  0
   12.3031   14.2725   22.9622 C   0  0  0  0  0  0  0  0  0  0  0  0
   11.3167   13.3365   23.3511 N   0  0  0  0  0  0  0  0  0  0  0  0
   10.4092   13.3048   24.5729 C   0  0  0  0  0  0  0  0  0  0  0  0
   10.2654   14.0813   25.4263 O   0  0  0  0  0  0  0  0  0  0  0  0
    9.6857   12.0405   24.4880 C   0  0  0  0  0  0  0  0  0  0  0  0
   10.1353   11.0799   23.6615 N   0  0  0  0  0  0  0  0  0  0  0  0
    9.3131   10.0276   23.8727 N   0  0  0  0  0  0  0  0  0  0  0  0
    9.4980    8.8093   23.0672 C   0  0  0  0  0  0  0  0  0  0  0  0
    8.3415    8.1379   22.9290 F   0  0  0  0  0  0  0  0  0  0  0  0
   10.3958    7.9483   23.5958 F   0  0  0  0  0  0  0  0  0  0  0  0
    9.9558    9.0984   21.8254 F   0  0  0  0  0  0  0  0  0  0  0  0
    8.3518   10.3105   24.8281 C   0  0  0  0  0  0  0  0  0  0  0  0
    7.3327    9.5587   25.4085 C   0  0  0  0  0  0  0  0  0  0  0  0
    6.4817   10.1748   26.3322 C   0  0  0  0  0  0  0  0  0  0  0  0
    6.6417   11.5119   26.6739 C   0  0  0  0  0  0  0  0  0  0  0  0
    7.6756   12.2581   26.1135 C   0  0  0  0  0  0  0  0  0  0  0  0
    8.5413   11.6403   25.1935 C   0  0  0  0  0  0  0  0  0  0  0  0
  1  2  1  0
  2  3  1  0
  3  4  1  0
  4  5  2  0
  5  6  1  0
  6  7  1  0
  7  8  1  0
  8  9  1  0
  9 10  1  0
 10 11  2  0
 10 12  1  0
 12 13  2  0
 13 14  1  0
 14 15  1  0
 15 16  1  0
 15 17  1  0
 15 18  1  0
 14 19  1  0
 19 20  2  0
 20 21  1  0
 21 22  2  0
 22 23  1  0
 23 24  2  0
  6  2  2  0
 24 12  1  0
 24 19  1  0
M  END
>  <energy_score>  (20) 
-31.954831

>  <fragmenstein_runtime>  (20) 
nan

>  <HIPPO Pose ID>  (20) 
497900

>  <fragmenstein_error>  (20) 
nan

>  <alias>  (20) 
None

>  <orig_smiles>  (20) 
nan

>  <smiles>  (20) 
None

>  <inchikey>  (20) 
None

>  <HIPPO Compound ID>  (20) 
289836

>  <fragmenstein_mode>  (20) 
nan

>  <fragmenstein_outcome>  (20) 
nan

>  <distance_score>  (20) 
0.699881

>  <subsites>  (20) 
None

>  <scratch_subdir>  (20) 
nan

>  <inspiration_score>  (20) 
None

>  <name>  (20) 
P497900

>  <ref_mols>  (20) 
A2290a,A3436a

>  <ref_pdb>  (20) 
A2290a

>  <exports>  (20) 
['/opt/xchem-fragalysis-2/maxwin/openbind-hippo/a71ev2a/cycle_01/bulkdock/openbind_a71ev2a_c1_elab_chemspace.sdf', '/opt/xchem-fragalysis-2/maxwin/openbind-hippo/a71ev2a/cycle_01/syndirella/elabs/openbind_a71ev2a_c1_elab_chemspace_filtered.sdf', '/opt/xchem-fragalysis-2/maxwin/openbind-hippo/a71ev2a/cycle_01/syndirella/elabs/ASAP-0031281-001_elabs.sdf']

>  <Energy>  (20) 
nan

>  <tags>  (20) 
openbind_a71ev2a_c1_elabs_filtered

>  <GNINA pK>  (20) 
nan

$$$$
P497901
     RDKit          3D

 25 27  0  0  0  0  0  0  0  0999 V2000
   14.4982   11.9546   24.9666 C   0  0  0  0  0  0  0  0  0  0  0  0
   13.6602   12.4914   23.9178 O   0  0  0  0  0  0  0  0  0  0  0  0
   12.7279   13.3995   24.2794 C   0  0  0  0  0  0  0  0  0  0  0  0
   12.4920   13.6671   25.4594 O   0  0  0  0  0  0  0  0  0  0  0  0
   11.8830   14.0123   23.1575 C   0  0  1  0  0  0  0  0  0  0  0  0
   12.2857   14.0677   21.6956 C   0  0  0  0  0  0  0  0  0  0  0  0
   11.2327   14.7506   20.8734 C   0  0  0  0  0  0  0  0  0  0  0  0
   11.0147   14.7816   19.5153 C   0  0  0  0  0  0  0  0  0  0  0  0
    9.9650   15.6211   19.2666 O   0  0  0  0  0  0  0  0  0  0  0  0
    9.6087   16.0754   20.4922 C   0  0  0  0  0  0  0  0  0  0  0  0
   10.2967   15.5551   21.4790 N   0  0  0  0  0  0  0  0  0  0  0  0
   10.7366   13.2091   23.4156 N   0  0  0  0  0  0  0  0  0  0  0  0
    9.5835   13.4159   24.3815 C   0  0  0  0  0  0  0  0  0  0  0  0
    9.3330   14.3124   25.0745 O   0  0  0  0  0  0  0  0  0  0  0  0
    8.8374   12.1703   24.3682 C   0  0  0  0  0  0  0  0  0  0  0  0
    9.2797   11.1253   23.6349 N   0  0  0  0  0  0  0  0  0  0  0  0
    8.6015   10.0883   24.1322 N   0  0  0  0  0  0  0  0  0  0  0  0
    8.9830    8.7670   23.7077 C   0  0  0  0  0  0  0  0  0  0  0  0
    7.6829   10.4393   25.0892 C   0  0  0  0  0  0  0  0  0  0  0  0
    6.7570    9.7119   25.8294 C   0  0  0  0  0  0  0  0  0  0  0  0
    5.9950   10.3859   26.7857 C   0  0  0  0  0  0  0  0  0  0  0  0
    6.1505   11.7526   26.9849 C   0  0  0  0  0  0  0  0  0  0  0  0
    5.1042   12.6245   28.2964 Br  0  0  0  0  0  0  0  0  0  0  0  0
    7.0615   12.4860   26.2324 C   0  0  0  0  0  0  0  0  0  0  0  0
    7.8161   11.8099   25.2593 C   0  0  0  0  0  0  0  0  0  0  0  0
  1  2  1  0
  2  3  1  0
  3  4  2  0
  3  5  1  0
  5  6  1  6
  6  7  1  0
  7  8  2  0
  8  9  1  0
  9 10  1  0
 10 11  2  0
  5 12  1  0
 12 13  1  0
 13 14  2  0
 13 15  1  0
 15 16  2  0
 16 17  1  0
 17 18  1  0
 17 19  1  0
 19 20  2  0
 20 21  1  0
 21 22  2  0
 22 23  1  0
 22 24  1  0
 24 25  2  0
 11  7  1  0
 25 15  1  0
 25 19  1  0
M  END
>  <energy_score>  (21) 
-1.107473

>  <fragmenstein_runtime>  (21) 
nan

>  <HIPPO Pose ID>  (21) 
497901

>  <fragmenstein_error>  (21) 
nan

>  <alias>  (21) 
None

>  <orig_smiles>  (21) 
nan

>  <smiles>  (21) 
None

>  <inchikey>  (21) 
None

>  <HIPPO Compound ID>  (21) 
289837

>  <fragmenstein_mode>  (21) 
nan

>  <fragmenstein_outcome>  (21) 
nan

>  <distance_score>  (21) 
0.966811

>  <subsites>  (21) 
None

>  <scratch_subdir>  (21) 
nan

>  <inspiration_score>  (21) 
None

>  <name>  (21) 
P497901

>  <ref_mols>  (21) 
A2290a,A3436a

>  <ref_pdb>  (21) 
A2290a

>  <exports>  (21) 
['/opt/xchem-fragalysis-2/maxwin/openbind-hippo/a71ev2a/cycle_01/syndirella/elabs/openbind_a71ev2a_c1_elab_chemspace_filtered.sdf', '/opt/xchem-fragalysis-2/maxwin/openbind-hippo/a71ev2a/cycle_01/syndirella/elabs/ASAP-0031281-001_elabs.sdf']

>  <Energy>  (21) 
nan

>  <tags>  (21) 
openbind_a71ev2a_c1_elabs_filtered

>  <GNINA pK>  (21) 
nan

$$$$
P497902
     RDKit          3D

 25 27  0  0  0  0  0  0  0  0999 V2000
    8.6049   17.3193   20.7386 C   0  0  0  0  0  0  0  0  0  0  0  0
    9.5696   16.2156   20.5990 C   0  0  0  0  0  0  0  0  0  0  0  0
   10.2406   15.5958   21.5502 N   0  0  0  0  0  0  0  0  0  0  0  0
   11.1689   14.8667   20.8769 C   0  0  0  0  0  0  0  0  0  0  0  0
   12.3748   14.2784   21.4903 C   0  0  0  0  0  0  0  0  0  0  0  0
   12.3092   14.1632   22.9856 C   0  0  0  0  0  0  0  0  0  0  0  0
   11.3608   13.2040   23.4259 N   0  0  0  0  0  0  0  0  0  0  0  0
   10.3353   13.2689   24.5510 C   0  0  0  0  0  0  0  0  0  0  0  0
   10.1475   14.0883   25.3543 O   0  0  0  0  0  0  0  0  0  0  0  0
    9.5495   12.0377   24.4748 C   0  0  0  0  0  0  0  0  0  0  0  0
    9.9301   11.0333   23.6631 N   0  0  0  0  0  0  0  0  0  0  0  0
    9.0837   10.0361   23.9525 N   0  0  0  0  0  0  0  0  0  0  0  0
    9.2478    8.7890   23.2456 C   0  0  0  0  0  0  0  0  0  0  0  0
    8.1485   10.3777   24.9011 C   0  0  0  0  0  0  0  0  0  0  0  0
    7.1185    9.6677   25.5168 C   0  0  0  0  0  0  0  0  0  0  0  0
    6.2898   10.3400   26.4179 C   0  0  0  0  0  0  0  0  0  0  0  0
    6.5047   11.6906   26.6974 C   0  0  0  0  0  0  0  0  0  0  0  0
    5.6205   12.3721   27.6415 N   0  0  0  0  0  0  0  0  0  0  0  0
    6.0897   13.3276   28.2759 O   0  0  0  0  0  0  0  0  0  0  0  0
    4.4708   11.9272   27.7770 O   0  0  0  0  0  0  0  0  0  0  0  0
    7.5642   12.3963   26.1184 C   0  0  0  0  0  0  0  0  0  0  0  0
    8.3914   11.7125   25.2085 C   0  0  0  0  0  0  0  0  0  0  0  0
   10.9249   14.9600   19.5369 C   0  0  0  0  0  0  0  0  0  0  0  0
   11.7071   14.4855   18.4078 C   0  0  0  0  0  0  0  0  0  0  0  0
    9.8828   15.8105   19.3333 O   0  0  0  0  0  0  0  0  0  0  0  0
  1  2  1  0
  2  3  2  0
  3  4  1  0
  4  5  1  0
  5  6  1  0
  6  7  1  0
  7  8  1  0
  8  9  2  0
  8 10  1  0
 10 11  2  0
 11 12  1  0
 12 13  1  0
 12 14  1  0
 14 15  2  0
 15 16  1  0
 16 17  2  0
 17 18  1  0
 18 19  2  0
 18 20  1  0
 17 21  1  0
 21 22  2  0
  4 23  2  0
 23 24  1  0
 23 25  1  0
 25  2  1  0
 22 10  1  0
 22 14  1  0
M  CHG  2  18   1  20  -1
M  END
>  <energy_score>  (22) 
-42.895939

>  <fragmenstein_runtime>  (22) 
nan

>  <HIPPO Pose ID>  (22) 
497902

>  <fragmenstein_error>  (22) 
nan

>  <alias>  (22) 
None

>  <orig_smiles>  (22) 
nan

>  <smiles>  (22) 
None

>  <inchikey>  (22) 
None

>  <HIPPO Compound ID>  (22) 
289838

>  <fragmenstein_mode>  (22) 
nan

>  <fragmenstein_outcome>  (22) 
nan

>  <distance_score>  (22) 
0.707126

>  <subsites>  (22) 
None

>  <scratch_subdir>  (22) 
nan

>  <inspiration_score>  (22) 
None

>  <name>  (22) 
P497902

>  <ref_mols>  (22) 
A2290a,A3436a

>  <ref_pdb>  (22) 
A2290a

>  <exports>  (22) 
['/opt/xchem-fragalysis-2/maxwin/openbind-hippo/a71ev2a/cycle_01/syndirella/elabs/openbind_a71ev2a_c1_elab_chemspace_filtered.sdf', '/opt/xchem-fragalysis-2/maxwin/openbind-hippo/a71ev2a/cycle_01/syndirella/elabs/ASAP-0031281-001_elabs.sdf']

>  <Energy>  (22) 
nan

>  <tags>  (22) 
openbind_a71ev2a_c1_elabs_filtered

>  <GNINA pK>  (22) 
nan

$$$$
P497903
     RDKit          3D

 25 27  0  0  0  0  0  0  0  0999 V2000
    5.1996   14.4801   28.5962 C   0  0  0  0  0  0  0  0  0  0  0  0
    6.0851   13.7256   27.7686 O   0  0  0  0  0  0  0  0  0  0  0  0
    5.6849   12.4504   27.5432 C   0  0  0  0  0  0  0  0  0  0  0  0
    4.7027   11.9116   28.0306 O   0  0  0  0  0  0  0  0  0  0  0  0
    6.6292   11.7600   26.6234 C   0  0  0  0  0  0  0  0  0  0  0  0
    6.4226   10.4017   26.3675 C   0  0  0  0  0  0  0  0  0  0  0  0
    7.2383    9.6982   25.4755 C   0  0  0  0  0  0  0  0  0  0  0  0
    8.2659   10.3881   24.8335 C   0  0  0  0  0  0  0  0  0  0  0  0
    8.5228   11.7264   25.1096 C   0  0  0  0  0  0  0  0  0  0  0  0
    7.6977   12.4298   26.0094 C   0  0  0  0  0  0  0  0  0  0  0  0
    9.6718   12.0349   24.3466 C   0  0  0  0  0  0  0  0  0  0  0  0
   10.4586   13.2713   24.3633 C   0  0  0  0  0  0  0  0  0  0  0  0
   10.3810   14.0479   25.2270 O   0  0  0  0  0  0  0  0  0  0  0  0
   11.3147   13.2785   23.0981 N   0  0  0  0  0  0  0  0  0  0  0  0
   12.3246   14.1887   22.6671 C   0  0  0  0  0  0  0  0  0  0  0  0
   12.3830   14.3317   21.1627 C   0  0  0  0  0  0  0  0  0  0  0  0
   11.1630   14.9402   20.5936 C   0  0  0  0  0  0  0  0  0  0  0  0
   10.7584   14.9926   19.2861 C   0  0  0  0  0  0  0  0  0  0  0  0
    9.7286   15.8781   19.1909 O   0  0  0  0  0  0  0  0  0  0  0  0
    9.5657   16.3252   20.4686 C   0  0  0  0  0  0  0  0  0  0  0  0
    8.5903   17.4027   20.6990 C   0  0  0  0  0  0  0  0  0  0  0  0
   10.3464   15.7370   21.3469 N   0  0  0  0  0  0  0  0  0  0  0  0
   10.0381   11.0070   23.5587 N   0  0  0  0  0  0  0  0  0  0  0  0
    9.1836   10.0246   23.8772 N   0  0  0  0  0  0  0  0  0  0  0  0
    9.3189    8.7645   23.1884 C   0  0  0  0  0  0  0  0  0  0  0  0
  1  2  1  0
  2  3  1  0
  3  4  2  0
  3  5  1  0
  5  6  2  0
  6  7  1  0
  7  8  2  0
  8  9  1  0
  9 10  2  0
  9 11  1  0
 11 12  1  0
 12 13  2  0
 12 14  1  0
 14 15  1  0
 15 16  1  0
 16 17  1  0
 17 18  2  0
 18 19  1  0
 19 20  1  0
 20 21  1  0
 20 22  2  0
 11 23  2  0
 23 24  1  0
 24 25  1  0
 10  5  1  0
 22 17  1  0
 24  8  1  0
M  END
>  <energy_score>  (23) 
-24.240014

>  <fragmenstein_runtime>  (23) 
nan

>  <HIPPO Pose ID>  (23) 
497903

>  <fragmenstein_error>  (23) 
nan

>  <alias>  (23) 
None

>  <orig_smiles>  (23) 
nan

>  <smiles>  (23) 
None

>  <inchikey>  (23) 
None

>  <HIPPO Compound ID>  (23) 
289839

>  <fragmenstein_mode>  (23) 
nan

>  <fragmenstein_outcome>  (23) 
nan

>  <distance_score>  (23) 
0.539836

>  <subsites>  (23) 
None

>  <scratch_subdir>  (23) 
nan

>  <inspiration_score>  (23) 
None

>  <name>  (23) 
P497903

>  <ref_mols>  (23) 
A2290a,A3436a

>  <ref_pdb>  (23) 
A2290a

>  <exports>  (23) 
['/opt/xchem-fragalysis-2/maxwin/openbind-hippo/a71ev2a/cycle_01/bulkdock/openbind_a71ev2a_c1_elab_chemspace.sdf', '/opt/xchem-fragalysis-2/maxwin/openbind-hippo/a71ev2a/cycle_01/syndirella/elabs/openbind_a71ev2a_c1_elab_chemspace_filtered.sdf', '/opt/xchem-fragalysis-2/maxwin/openbind-hippo/a71ev2a/cycle_01/syndirella/elabs/ASAP-0031281-001_elabs.sdf']

>  <Energy>  (23) 
nan

>  <tags>  (23) 
openbind_a71ev2a_c1_elabs_filtered

>  <GNINA pK>  (23) 
nan

$$$$
P497904
     RDKit          3D

 25 27  0  0  0  0  0  0  0  0999 V2000
    5.6812   14.9748   28.0848 C   0  0  0  0  0  0  0  0  0  0  0  0
    6.5111   14.1248   27.2933 O   0  0  0  0  0  0  0  0  0  0  0  0
    6.1481   12.8186   27.3059 C   0  0  0  0  0  0  0  0  0  0  0  0
    5.2512   12.3320   27.9777 O   0  0  0  0  0  0  0  0  0  0  0  0
    7.0133   12.0266   26.3894 C   0  0  0  0  0  0  0  0  0  0  0  0
    6.7554   10.6569   26.2580 C   0  0  0  0  0  0  0  0  0  0  0  0
    7.5011    9.8583   25.3843 C   0  0  0  0  0  0  0  0  0  0  0  0
    8.5109   10.4734   24.6374 C   0  0  0  0  0  0  0  0  0  0  0  0
    8.8189   11.8242   24.7798 C   0  0  0  0  0  0  0  0  0  0  0  0
    8.0595   12.6175   25.6622 C   0  0  0  0  0  0  0  0  0  0  0  0
    9.9138   12.0503   23.9009 C   0  0  0  0  0  0  0  0  0  0  0  0
   10.6795   13.2929   23.6972 C   0  0  0  0  0  0  0  0  0  0  0  0
   10.7577   14.0998   24.5357 O   0  0  0  0  0  0  0  0  0  0  0  0
   11.2478   13.2809   22.2708 N   0  0  0  0  0  0  0  0  0  0  0  0
   11.9528   14.2970   21.5369 C   0  0  0  0  0  0  0  0  0  0  0  0
   11.2466   14.6494   20.2304 C   0  0  0  0  0  0  0  0  0  0  0  0
   10.0707   15.5259   20.3974 C   0  0  0  0  0  0  0  0  0  0  0  0
    9.2001   15.3442   21.4408 N   0  0  0  0  0  0  0  0  0  0  0  0
    8.3597   16.3428   21.3060 C   0  0  0  0  0  0  0  0  0  0  0  0
    8.5974   17.1663   20.2668 O   0  0  0  0  0  0  0  0  0  0  0  0
    9.5921   16.5351   19.5926 C   0  0  0  0  0  0  0  0  0  0  0  0
    9.8401   17.0801   18.2625 C   0  0  0  0  0  0  0  0  0  0  0  0
   10.2117   10.9424   23.2042 N   0  0  0  0  0  0  0  0  0  0  0  0
    9.3653   10.0099   23.6662 N   0  0  0  0  0  0  0  0  0  0  0  0
    9.4238    8.6915   23.0832 C   0  0  0  0  0  0  0  0  0  0  0  0
  1  2  1  0
  2  3  1  0
  3  4  2  0
  3  5  1  0
  5  6  2  0
  6  7  1  0
  7  8  2  0
  8  9  1  0
  9 10  2  0
  9 11  1  0
 11 12  1  0
 12 13  2  0
 12 14  1  0
 14 15  1  0
 15 16  1  0
 16 17  1  0
 17 18  1  0
 18 19  2  0
 19 20  1  0
 20 21  1  0
 21 22  1  0
 11 23  2  0
 23 24  1  0
 24 25  1  0
 10  5  1  0
 21 17  2  0
 24  8  1  0
M  END
>  <energy_score>  (24) 
-19.104063

>  <fragmenstein_runtime>  (24) 
nan

>  <HIPPO Pose ID>  (24) 
497904

>  <fragmenstein_error>  (24) 
nan

>  <alias>  (24) 
None

>  <orig_smiles>  (24) 
nan

>  <smiles>  (24) 
None

>  <inchikey>  (24) 
None

>  <HIPPO Compound ID>  (24) 
289840

>  <fragmenstein_mode>  (24) 
nan

>  <fragmenstein_outcome>  (24) 
nan

>  <distance_score>  (24) 
0.856196

>  <subsites>  (24) 
None

>  <scratch_subdir>  (24) 
nan

>  <inspiration_score>  (24) 
None

>  <name>  (24) 
P497904

>  <ref_mols>  (24) 
A2290a,A3436a

>  <ref_pdb>  (24) 
A2290a

>  <exports>  (24) 
['/opt/xchem-fragalysis-2/maxwin/openbind-hippo/a71ev2a/cycle_01/syndirella/elabs/openbind_a71ev2a_c1_elab_chemspace_filtered.sdf', '/opt/xchem-fragalysis-2/maxwin/openbind-hippo/a71ev2a/cycle_01/syndirella/elabs/ASAP-0031281-001_elabs.sdf']

>  <Energy>  (24) 
nan

>  <tags>  (24) 
openbind_a71ev2a_c1_elabs_filtered

>  <GNINA pK>  (24) 
nan

$$$$
P497905
     RDKit          3D

 25 27  0  0  0  0  0  0  0  0999 V2000
    4.4914   16.2239   25.2785 C   0  0  0  0  0  0  0  0  0  0  0  0
    5.7116   15.5211   25.0601 O   0  0  0  0  0  0  0  0  0  0  0  0
    5.8155   14.3455   25.7396 C   0  0  0  0  0  0  0  0  0  0  0  0
    4.9733   13.9361   26.5365 O   0  0  0  0  0  0  0  0  0  0  0  0
    7.0329   13.5973   25.4030 C   0  0  0  0  0  0  0  0  0  0  0  0
    8.1519   14.1550   24.8970 N   0  0  0  0  0  0  0  0  0  0  0  0
    8.9961   13.1102   24.7369 N   0  0  0  0  0  0  0  0  0  0  0  0
   10.3944   13.3862   24.9683 C   0  0  0  0  0  0  0  0  0  0  0  0
   11.3344   13.0165   23.8739 C   0  0  0  0  0  0  0  0  0  0  0  0
   12.1790   12.2299   24.0444 O   0  0  0  0  0  0  0  0  0  0  0  0
   11.0254   13.9021   22.6498 N   0  0  0  0  0  0  0  0  0  0  0  0
   11.7438   14.0749   21.4186 C   0  0  2  0  0  0  0  0  0  0  0  0
   12.8114   15.1012   21.6506 C   0  0  0  0  0  0  0  0  0  0  0  0
   10.8655   14.3537   20.2129 C   0  0  0  0  0  0  0  0  0  0  0  0
   10.0896   15.6011   20.1314 C   0  0  0  0  0  0  0  0  0  0  0  0
    9.8859   16.4140   19.0408 C   0  0  0  0  0  0  0  0  0  0  0  0
    9.0824   17.4392   19.4141 O   0  0  0  0  0  0  0  0  0  0  0  0
    8.8283   17.1796   20.7213 C   0  0  0  0  0  0  0  0  0  0  0  0
    9.3649   16.0698   21.1871 N   0  0  0  0  0  0  0  0  0  0  0  0
    8.3982   11.8888   24.9137 C   0  0  0  0  0  0  0  0  0  0  0  0
    8.8121   10.5835   24.6626 C   0  0  0  0  0  0  0  0  0  0  0  0
    7.9704    9.5690   25.1187 C   0  0  0  0  0  0  0  0  0  0  0  0
    6.8179    9.8449   25.8529 C   0  0  0  0  0  0  0  0  0  0  0  0
    6.4185   11.1567   26.0808 C   0  0  0  0  0  0  0  0  0  0  0  0
    7.1992   12.1929   25.5516 C   0  0  0  0  0  0  0  0  0  0  0  0
  1  2  1  0
  2  3  1  0
  3  4  2  0
  3  5  1  0
  5  6  2  0
  6  7  1  0
  7  8  1  0
  8  9  1  0
  9 10  2  0
  9 11  1  0
 11 12  1  0
 12 13  1  1
 12 14  1  0
 14 15  1  0
 15 16  2  0
 16 17  1  0
 17 18  1  0
 18 19  2  0
  7 20  1  0
 20 21  2  0
 21 22  1  0
 22 23  2  0
 23 24  1  0
 24 25  2  0
 25  5  1  0
 19 15  1  0
 25 20  1  0
M  END
>  <energy_score>  (25) 
-17.541923

>  <fragmenstein_runtime>  (25) 
nan

>  <HIPPO Pose ID>  (25) 
497905

>  <fragmenstein_error>  (25) 
nan

>  <alias>  (25) 
None

>  <orig_smiles>  (25) 
nan

>  <smiles>  (25) 
None

>  <inchikey>  (25) 
None

>  <HIPPO Compound ID>  (25) 
289841

>  <fragmenstein_mode>  (25) 
nan

>  <fragmenstein_outcome>  (25) 
nan

>  <distance_score>  (25) 
1.701402

>  <subsites>  (25) 
None

>  <scratch_subdir>  (25) 
nan

>  <inspiration_score>  (25) 
None

>  <name>  (25) 
P497905

>  <ref_mols>  (25) 
A2290a,A3436a

>  <ref_pdb>  (25) 
A2290a

>  <exports>  (25) 
['/opt/xchem-fragalysis-2/maxwin/openbind-hippo/a71ev2a/cycle_01/syndirella/elabs/openbind_a71ev2a_c1_elab_chemspace_filtered.sdf', '/opt/xchem-fragalysis-2/maxwin/openbind-hippo/a71ev2a/cycle_01/syndirella/elabs/ASAP-0031281-001_elabs.sdf']

>  <Energy>  (25) 
nan

>  <tags>  (25) 
openbind_a71ev2a_c1_elabs_filtered

>  <GNINA pK>  (25) 
nan

$$$$
P497906
     RDKit          3D

 25 27  0  0  0  0  0  0  0  0999 V2000
    8.3177   16.7512   28.1092 C   0  0  0  0  0  0  0  0  0  0  0  0
    8.6994   15.7062   27.2078 O   0  0  0  0  0  0  0  0  0  0  0  0
    7.8291   14.6471   27.2465 C   0  0  0  0  0  0  0  0  0  0  0  0
    6.8766   14.5985   28.0223 O   0  0  0  0  0  0  0  0  0  0  0  0
    8.1682   13.5374   26.3375 C   0  0  0  0  0  0  0  0  0  0  0  0
    9.1933   13.5352   25.4566 N   0  0  0  0  0  0  0  0  0  0  0  0
    9.1441   12.3047   24.8914 N   0  0  0  0  0  0  0  0  0  0  0  0
    9.9944   11.9015   23.7975 C   0  0  0  0  0  0  0  0  0  0  0  0
   11.1481   12.8238   23.5226 C   0  0  0  0  0  0  0  0  0  0  0  0
   12.1662   12.7752   24.0973 O   0  0  0  0  0  0  0  0  0  0  0  0
   10.7144   13.7003   22.3145 N   0  0  0  0  0  0  0  0  0  0  0  0
   11.4121   14.7623   21.6277 C   0  0  1  0  0  0  0  0  0  0  0  0
   12.8905   14.4912   21.6047 C   0  0  0  0  0  0  0  0  0  0  0  0
   10.8894   14.8216   20.1859 C   0  0  0  0  0  0  0  0  0  0  0  0
    9.9446   15.9325   19.9481 C   0  0  0  0  0  0  0  0  0  0  0  0
    9.7689   16.6844   18.8107 C   0  0  0  0  0  0  0  0  0  0  0  0
    8.9335   17.7128   19.1045 O   0  0  0  0  0  0  0  0  0  0  0  0
    8.6593   17.5332   20.4247 C   0  0  0  0  0  0  0  0  0  0  0  0
    9.1677   16.4415   20.9522 N   0  0  0  0  0  0  0  0  0  0  0  0
    8.1641   11.4953   25.3974 C   0  0  0  0  0  0  0  0  0  0  0  0
    7.8130   10.1771   25.1178 C   0  0  0  0  0  0  0  0  0  0  0  0
    6.7081    9.6794   25.8016 C   0  0  0  0  0  0  0  0  0  0  0  0
    6.0111   10.4315   26.7384 C   0  0  0  0  0  0  0  0  0  0  0  0
    6.3919   11.7401   27.0104 C   0  0  0  0  0  0  0  0  0  0  0  0
    7.4871   12.2837   26.3196 C   0  0  0  0  0  0  0  0  0  0  0  0
  1  2  1  0
  2  3  1  0
  3  4  2  0
  3  5  1  0
  5  6  2  0
  6  7  1  0
  7  8  1  0
  8  9  1  0
  9 10  2  0
  9 11  1  0
 11 12  1  0
 12 13  1  6
 12 14  1  0
 14 15  1  0
 15 16  2  0
 16 17  1  0
 17 18  1  0
 18 19  2  0
  7 20  1  0
 20 21  2  0
 21 22  1  0
 22 23  2  0
 23 24  1  0
 24 25  2  0
 25  5  1  0
 19 15  1  0
 25 20  1  0
M  END
>  <energy_score>  (26) 
-8.973323

>  <fragmenstein_runtime>  (26) 
nan

>  <HIPPO Pose ID>  (26) 
497906

>  <fragmenstein_error>  (26) 
nan

>  <alias>  (26) 
None

>  <orig_smiles>  (26) 
nan

>  <smiles>  (26) 
None

>  <inchikey>  (26) 
None

>  <HIPPO Compound ID>  (26) 
289841

>  <fragmenstein_mode>  (26) 
nan

>  <fragmenstein_outcome>  (26) 
nan

>  <distance_score>  (26) 
1.699559

>  <subsites>  (26) 
None

>  <scratch_subdir>  (26) 
nan

>  <inspiration_score>  (26) 
None

>  <name>  (26) 
P497906

>  <ref_mols>  (26) 
A2290a,A3436a

>  <ref_pdb>  (26) 
A2290a

>  <exports>  (26) 
['/opt/xchem-fragalysis-2/maxwin/openbind-hippo/a71ev2a/cycle_01/bulkdock/openbind_a71ev2a_c1_elab_chemspace.sdf', '/opt/xchem-fragalysis-2/maxwin/openbind-hippo/a71ev2a/cycle_01/syndirella/elabs/openbind_a71ev2a_c1_elab_chemspace_filtered.sdf', '/opt/xchem-fragalysis-2/maxwin/openbind-hippo/a71ev2a/cycle_01/syndirella/elabs/ASAP-0031281-001_elabs.sdf']

>  <Energy>  (26) 
nan

>  <tags>  (26) 
openbind_a71ev2a_c1_elabs_filtered

>  <GNINA pK>  (26) 
nan

$$$$
P497907
     RDKit          3D

 25 27  0  0  0  0  0  0  0  0999 V2000
    4.0439   12.6687   28.7910 C   0  0  0  0  0  0  0  0  0  0  0  0
    4.8140   11.9180   27.8522 O   0  0  0  0  0  0  0  0  0  0  0  0
    6.0679   12.4022   27.6645 C   0  0  0  0  0  0  0  0  0  0  0  0
    6.5642   13.3584   28.2387 O   0  0  0  0  0  0  0  0  0  0  0  0
    6.7844   11.5996   26.6444 C   0  0  0  0  0  0  0  0  0  0  0  0
    6.4482   10.2740   26.3802 C   0  0  0  0  0  0  0  0  0  0  0  0
    7.1623    9.5280   25.4355 C   0  0  0  0  0  0  0  0  0  0  0  0
    8.2071   10.1274   24.7380 C   0  0  0  0  0  0  0  0  0  0  0  0
    8.5687   11.4362   25.0166 C   0  0  0  0  0  0  0  0  0  0  0  0
    7.8627   12.1887   25.9759 C   0  0  0  0  0  0  0  0  0  0  0  0
    9.7030   11.6430   24.2143 C   0  0  0  0  0  0  0  0  0  0  0  0
   10.6177   12.7451   24.2861 C   0  0  0  0  0  0  0  0  0  0  0  0
   10.6908   13.3975   25.2506 O   0  0  0  0  0  0  0  0  0  0  0  0
   11.3519   12.8686   22.9406 N   0  0  0  0  0  0  0  0  0  0  0  0
   12.2521   13.8652   22.4659 C   0  0  2  0  0  0  0  0  0  0  0  0
   11.8192   15.0858   23.2024 C   0  0  0  0  0  0  0  0  0  0  0  0
   12.2775   14.1739   20.9794 C   0  0  0  0  0  0  0  0  0  0  0  0
   11.0722   14.8302   20.3960 C   0  0  0  0  0  0  0  0  0  0  0  0
   10.8170   15.0254   19.0668 C   0  0  0  0  0  0  0  0  0  0  0  0
    9.7958   15.9173   18.9409 O   0  0  0  0  0  0  0  0  0  0  0  0
    9.4819   16.2327   20.2198 C   0  0  0  0  0  0  0  0  0  0  0  0
   10.1652   15.5715   21.1175 N   0  0  0  0  0  0  0  0  0  0  0  0
    9.9296   10.6456   23.3598 N   0  0  0  0  0  0  0  0  0  0  0  0
    9.0674    9.7064   23.7480 N   0  0  0  0  0  0  0  0  0  0  0  0
    9.1807    8.4381   23.0848 C   0  0  0  0  0  0  0  0  0  0  0  0
  1  2  1  0
  2  3  1  0
  3  4  2  0
  3  5  1  0
  5  6  2  0
  6  7  1  0
  7  8  2  0
  8  9  1  0
  9 10  2  0
  9 11  1  0
 11 12  1  0
 12 13  2  0
 12 14  1  0
 14 15  1  0
 15 16  1  1
 15 17  1  0
 17 18  1  0
 18 19  2  0
 19 20  1  0
 20 21  1  0
 21 22  2  0
 11 23  2  0
 23 24  1  0
 24 25  1  0
 10  5  1  0
 22 18  1  0
 24  8  1  0
M  END
>  <energy_score>  (27) 
-2.66247

>  <fragmenstein_runtime>  (27) 
nan

>  <HIPPO Pose ID>  (27) 
497907

>  <fragmenstein_error>  (27) 
nan

>  <alias>  (27) 
None

>  <orig_smiles>  (27) 
nan

>  <smiles>  (27) 
None

>  <inchikey>  (27) 
None

>  <HIPPO Compound ID>  (27) 
289842

>  <fragmenstein_mode>  (27) 
nan

>  <fragmenstein_outcome>  (27) 
nan

>  <distance_score>  (27) 
0.586901

>  <subsites>  (27) 
None

>  <scratch_subdir>  (27) 
nan

>  <inspiration_score>  (27) 
None

>  <name>  (27) 
P497907

>  <ref_mols>  (27) 
A2290a,A3436a

>  <ref_pdb>  (27) 
A2290a

>  <exports>  (27) 
['/opt/xchem-fragalysis-2/maxwin/openbind-hippo/a71ev2a/cycle_01/bulkdock/openbind_a71ev2a_c1_elab_chemspace.sdf', '/opt/xchem-fragalysis-2/maxwin/openbind-hippo/a71ev2a/cycle_01/syndirella/elabs/openbind_a71ev2a_c1_elab_chemspace_filtered.sdf', '/opt/xchem-fragalysis-2/maxwin/openbind-hippo/a71ev2a/cycle_01/syndirella/elabs/ASAP-0031281-001_elabs.sdf']

>  <Energy>  (27) 
nan

>  <tags>  (27) 
openbind_a71ev2a_c1_elabs_filtered

>  <GNINA pK>  (27) 
nan

$$$$
P497908
     RDKit          3D

 25 27  0  0  0  0  0  0  0  0999 V2000
    3.4655   12.4962   29.2230 C   0  0  0  0  0  0  0  0  0  0  0  0
    4.2872   11.8511   28.2495 O   0  0  0  0  0  0  0  0  0  0  0  0
    5.4941   12.4474   28.0739 C   0  0  0  0  0  0  0  0  0  0  0  0
    5.9081   13.4253   28.6748 O   0  0  0  0  0  0  0  0  0  0  0  0
    6.2674   11.7417   27.0238 C   0  0  0  0  0  0  0  0  0  0  0  0
    6.0571   10.3903   26.7432 C   0  0  0  0  0  0  0  0  0  0  0  0
    6.8151    9.7290   25.7734 C   0  0  0  0  0  0  0  0  0  0  0  0
    7.7839   10.4524   25.0829 C   0  0  0  0  0  0  0  0  0  0  0  0
    7.9936   11.8024   25.3327 C   0  0  0  0  0  0  0  0  0  0  0  0
    7.2512   12.4586   26.3307 C   0  0  0  0  0  0  0  0  0  0  0  0
    9.0380   12.1609   24.4611 C   0  0  0  0  0  0  0  0  0  0  0  0
    9.8225   13.3897   24.4705 C   0  0  0  0  0  0  0  0  0  0  0  0
    9.7514   14.1804   25.3200 O   0  0  0  0  0  0  0  0  0  0  0  0
   10.7439   13.3204   23.2590 N   0  0  0  0  0  0  0  0  0  0  0  0
   11.8338   14.1485   22.8791 C   0  0  1  0  0  0  0  0  0  0  0  0
   12.9992   13.4736   23.5619 C   0  0  0  0  0  0  0  0  0  0  0  0
   12.0659   14.2922   21.3810 C   0  0  0  0  0  0  0  0  0  0  0  0
   10.9472   14.9600   20.6823 C   0  0  0  0  0  0  0  0  0  0  0  0
   10.6994   15.0578   19.3368 C   0  0  0  0  0  0  0  0  0  0  0  0
    9.6978   15.9634   19.1538 O   0  0  0  0  0  0  0  0  0  0  0  0
    9.3863   16.3626   20.4136 C   0  0  0  0  0  0  0  0  0  0  0  0
   10.0552   15.7477   21.3574 N   0  0  0  0  0  0  0  0  0  0  0  0
    9.3996   11.1429   23.6540 N   0  0  0  0  0  0  0  0  0  0  0  0
    8.6957   10.1051   24.1158 N   0  0  0  0  0  0  0  0  0  0  0  0
    9.0395    8.7845   23.6521 C   0  0  0  0  0  0  0  0  0  0  0  0
  1  2  1  0
  2  3  1  0
  3  4  2  0
  3  5  1  0
  5  6  2  0
  6  7  1  0
  7  8  2  0
  8  9  1  0
  9 10  2  0
  9 11  1  0
 11 12  1  0
 12 13  2  0
 12 14  1  0
 14 15  1  0
 15 16  1  1
 15 17  1  0
 17 18  1  0
 18 19  2  0
 19 20  1  0
 20 21  1  0
 21 22  2  0
 11 23  2  0
 23 24  1  0
 24 25  1  0
 10  5  1  0
 22 18  1  0
 24  8  1  0
M  END
>  <energy_score>  (28) 
-22.327593

>  <fragmenstein_runtime>  (28) 
nan

>  <HIPPO Pose ID>  (28) 
497908

>  <fragmenstein_error>  (28) 
nan

>  <alias>  (28) 
None

>  <orig_smiles>  (28) 
nan

>  <smiles>  (28) 
None

>  <inchikey>  (28) 
None

>  <HIPPO Compound ID>  (28) 
289842

>  <fragmenstein_mode>  (28) 
nan

>  <fragmenstein_outcome>  (28) 
nan

>  <distance_score>  (28) 
0.815937

>  <subsites>  (28) 
None

>  <scratch_subdir>  (28) 
nan

>  <inspiration_score>  (28) 
None

>  <name>  (28) 
P497908

>  <ref_mols>  (28) 
A2290a,A3436a

>  <ref_pdb>  (28) 
A2290a

>  <exports>  (28) 
['/opt/xchem-fragalysis-2/maxwin/openbind-hippo/a71ev2a/cycle_01/syndirella/elabs/openbind_a71ev2a_c1_elab_chemspace_filtered.sdf', '/opt/xchem-fragalysis-2/maxwin/openbind-hippo/a71ev2a/cycle_01/syndirella/elabs/ASAP-0031281-001_elabs.sdf']

>  <Energy>  (28) 
nan

>  <tags>  (28) 
openbind_a71ev2a_c1_elabs_filtered

>  <GNINA pK>  (28) 
nan

$$$$
P497909
     RDKit          3D

 25 27  0  0  0  0  0  0  0  0999 V2000
    7.1818   16.1749   28.0987 C   0  0  0  0  0  0  0  0  0  0  0  0
    7.3808   14.9693   27.3596 O   0  0  0  0  0  0  0  0  0  0  0  0
    8.5964   14.8772   26.7404 C   0  0  0  0  0  0  0  0  0  0  0  0
    9.4871   15.7169   26.8690 O   0  0  0  0  0  0  0  0  0  0  0  0
    8.7348   13.6573   25.9284 C   0  0  0  0  0  0  0  0  0  0  0  0
    9.7516   13.5226   25.0567 N   0  0  0  0  0  0  0  0  0  0  0  0
    9.5991   12.2946   24.5317 N   0  0  0  0  0  0  0  0  0  0  0  0
   10.4583   11.8175   23.4724 C   0  0  0  0  0  0  0  0  0  0  0  0
   11.6627   12.6972   23.1960 C   0  0  0  0  0  0  0  0  0  0  0  0
   12.6840   12.5764   23.7539 O   0  0  0  0  0  0  0  0  0  0  0  0
   11.2625   13.6294   22.0219 N   0  0  0  0  0  0  0  0  0  0  0  0
   12.0558   14.5304   21.2346 C   0  0  0  0  0  0  0  0  0  0  0  0
   11.4935   14.6307   19.8194 C   0  0  0  0  0  0  0  0  0  0  0  0
   10.3764   15.5815   19.6803 C   0  0  0  0  0  0  0  0  0  0  0  0
   10.1193   16.4239   18.6247 C   0  0  0  0  0  0  0  0  0  0  0  0
    9.2249   17.3466   19.0148 O   0  0  0  0  0  0  0  0  0  0  0  0
    9.0449   17.0438   20.3215 C   0  0  0  0  0  0  0  0  0  0  0  0
    8.3874   18.0746   21.0894 C   0  0  0  0  0  0  0  0  0  0  0  0
    9.5963   15.9266   20.7419 N   0  0  0  0  0  0  0  0  0  0  0  0
    8.5724   11.5772   25.0888 C   0  0  0  0  0  0  0  0  0  0  0  0
    8.1456   10.2603   24.9038 C   0  0  0  0  0  0  0  0  0  0  0  0
    7.0495    9.8425   25.6579 C   0  0  0  0  0  0  0  0  0  0  0  0
    6.4004   10.6964   26.5423 C   0  0  0  0  0  0  0  0  0  0  0  0
    6.8394   12.0103   26.7088 C   0  0  0  0  0  0  0  0  0  0  0  0
    7.9539   12.4598   25.9751 C   0  0  0  0  0  0  0  0  0  0  0  0
  1  2  1  0
  2  3  1  0
  3  4  2  0
  3  5  1  0
  5  6  2  0
  6  7  1  0
  7  8  1  0
  8  9  1  0
  9 10  2  0
  9 11  1  0
 11 12  1  0
 12 13  1  0
 13 14  1  0
 14 15  2  0
 15 16  1  0
 16 17  1  0
 17 18  1  0
 17 19  2  0
  7 20  1  0
 20 21  2  0
 21 22  1  0
 22 23  2  0
 23 24  1  0
 24 25  2  0
 25  5  1  0
 19 14  1  0
 25 20  1  0
M  END
>  <energy_score>  (29) 
-40.851664

>  <fragmenstein_runtime>  (29) 
nan

>  <HIPPO Pose ID>  (29) 
497909

>  <fragmenstein_error>  (29) 
nan

>  <alias>  (29) 
None

>  <orig_smiles>  (29) 
nan

>  <smiles>  (29) 
None

>  <inchikey>  (29) 
None

>  <HIPPO Compound ID>  (29) 
289843

>  <fragmenstein_mode>  (29) 
nan

>  <fragmenstein_outcome>  (29) 
nan

>  <distance_score>  (29) 
1.55915

>  <subsites>  (29) 
None

>  <scratch_subdir>  (29) 
nan

>  <inspiration_score>  (29) 
None

>  <name>  (29) 
P497909

>  <ref_mols>  (29) 
A2290a,A3436a

>  <ref_pdb>  (29) 
A2290a

>  <exports>  (29) 
['/opt/xchem-fragalysis-2/maxwin/openbind-hippo/a71ev2a/cycle_01/bulkdock/openbind_a71ev2a_c1_elab_chemspace.sdf', '/opt/xchem-fragalysis-2/maxwin/openbind-hippo/a71ev2a/cycle_01/syndirella/elabs/openbind_a71ev2a_c1_elab_chemspace_filtered.sdf', '/opt/xchem-fragalysis-2/maxwin/openbind-hippo/a71ev2a/cycle_01/syndirella/elabs/ASAP-0031281-001_elabs.sdf']

>  <Energy>  (29) 
nan

>  <tags>  (29) 
openbind_a71ev2a_c1_elabs_filtered

>  <GNINA pK>  (29) 
nan

$$$$
P497910
     RDKit          3D

 25 27  0  0  0  0  0  0  0  0999 V2000
    8.4114   16.5061   28.0601 C   0  0  0  0  0  0  0  0  0  0  0  0
    8.7105   15.4047   27.1974 O   0  0  0  0  0  0  0  0  0  0  0  0
    7.8367   14.3640   27.3867 C   0  0  0  0  0  0  0  0  0  0  0  0
    6.9736   14.3768   28.2627 O   0  0  0  0  0  0  0  0  0  0  0  0
    8.0445   13.2051   26.5017 C   0  0  0  0  0  0  0  0  0  0  0  0
    9.0748   13.0479   25.6417 N   0  0  0  0  0  0  0  0  0  0  0  0
    8.7931   11.8791   25.0049 N   0  0  0  0  0  0  0  0  0  0  0  0
    9.4955   11.4651   23.8145 C   0  0  0  0  0  0  0  0  0  0  0  0
    9.8810   12.6723   23.0237 C   0  0  0  0  0  0  0  0  0  0  0  0
    9.1265   13.2425   22.3390 O   0  0  0  0  0  0  0  0  0  0  0  0
   11.3616   12.9873   23.3704 N   0  0  0  0  0  0  0  0  0  0  0  0
   12.1773   14.1087   23.0239 C   0  0  0  0  0  0  0  0  0  0  0  0
   12.3339   14.3515   21.5454 C   0  0  0  0  0  0  0  0  0  0  0  0
   11.1611   14.9541   20.8897 C   0  0  0  0  0  0  0  0  0  0  0  0
   10.2495   15.7359   21.5255 N   0  0  0  0  0  0  0  0  0  0  0  0
    9.4851   16.1955   20.5610 C   0  0  0  0  0  0  0  0  0  0  0  0
    9.8188   15.7637   19.3157 O   0  0  0  0  0  0  0  0  0  0  0  0
   10.9083   14.9805   19.5473 C   0  0  0  0  0  0  0  0  0  0  0  0
   11.6896   14.4707   18.4325 C   0  0  0  0  0  0  0  0  0  0  0  0
    7.7930   11.1642   25.5919 C   0  0  0  0  0  0  0  0  0  0  0  0
    7.3031    9.8859   25.3548 C   0  0  0  0  0  0  0  0  0  0  0  0
    6.1364    9.5475   26.0352 C   0  0  0  0  0  0  0  0  0  0  0  0
    5.5517   10.3876   26.9737 C   0  0  0  0  0  0  0  0  0  0  0  0
    6.0942   11.6379   27.2331 C   0  0  0  0  0  0  0  0  0  0  0  0
    7.2303   12.0367   26.5162 C   0  0  0  0  0  0  0  0  0  0  0  0
  1  2  1  0
  2  3  1  0
  3  4  2  0
  3  5  1  0
  5  6  2  0
  6  7  1  0
  7  8  1  0
  8  9  1  0
  9 10  2  0
  9 11  1  0
 11 12  1  0
 12 13  1  0
 13 14  1  0
 14 15  1  0
 15 16  2  0
 16 17  1  0
 17 18  1  0
 18 19  1  0
  7 20  1  0
 20 21  2  0
 21 22  1  0
 22 23  2  0
 23 24  1  0
 24 25  2  0
 25  5  1  0
 18 14  2  0
 25 20  1  0
M  END
>  <energy_score>  (30) 
-4.835412

>  <fragmenstein_runtime>  (30) 
nan

>  <HIPPO Pose ID>  (30) 
497910

>  <fragmenstein_error>  (30) 
nan

>  <alias>  (30) 
None

>  <orig_smiles>  (30) 
nan

>  <smiles>  (30) 
None

>  <inchikey>  (30) 
None

>  <HIPPO Compound ID>  (30) 
289844

>  <fragmenstein_mode>  (30) 
nan

>  <fragmenstein_outcome>  (30) 
nan

>  <distance_score>  (30) 
1.648389

>  <subsites>  (30) 
None

>  <scratch_subdir>  (30) 
nan

>  <inspiration_score>  (30) 
None

>  <name>  (30) 
P497910

>  <ref_mols>  (30) 
A2290a,A3436a

>  <ref_pdb>  (30) 
A2290a

>  <exports>  (30) 
['/opt/xchem-fragalysis-2/maxwin/openbind-hippo/a71ev2a/cycle_01/syndirella/elabs/openbind_a71ev2a_c1_elab_chemspace_filtered.sdf', '/opt/xchem-fragalysis-2/maxwin/openbind-hippo/a71ev2a/cycle_01/syndirella/elabs/ASAP-0031281-001_elabs.sdf']

>  <Energy>  (30) 
nan

>  <tags>  (30) 
openbind_a71ev2a_c1_elabs_filtered

>  <GNINA pK>  (30) 
nan

$$$$
P497911
     RDKit          3D

 25 27  0  0  0  0  0  0  0  0999 V2000
    8.6008   17.3352   20.7166 C   0  0  0  0  0  0  0  0  0  0  0  0
    9.5689   16.2355   20.5729 C   0  0  0  0  0  0  0  0  0  0  0  0
   10.2554   15.6331   21.5230 N   0  0  0  0  0  0  0  0  0  0  0  0
   11.1808   14.9034   20.8476 C   0  0  0  0  0  0  0  0  0  0  0  0
   12.4062   14.3449   21.4484 C   0  0  0  0  0  0  0  0  0  0  0  0
   12.3533   14.2545   22.9430 C   0  0  0  0  0  0  0  0  0  0  0  0
   11.4247   13.2801   23.3784 N   0  0  0  0  0  0  0  0  0  0  0  0
   10.4382   13.3005   24.5393 C   0  0  0  0  0  0  0  0  0  0  0  0
   10.2767   14.0892   25.3784 O   0  0  0  0  0  0  0  0  0  0  0  0
    9.6973   12.0449   24.4488 C   0  0  0  0  0  0  0  0  0  0  0  0
   10.1363   11.0781   23.6228 N   0  0  0  0  0  0  0  0  0  0  0  0
    9.3178   10.0277   23.8533 N   0  0  0  0  0  0  0  0  0  0  0  0
    9.5003    8.8012   23.0621 C   0  0  0  0  0  0  0  0  0  0  0  0
   10.4025    7.9460   23.5915 F   0  0  0  0  0  0  0  0  0  0  0  0
    8.3443    8.1277   22.9308 F   0  0  0  0  0  0  0  0  0  0  0  0
    9.9494    9.0742   21.8106 F   0  0  0  0  0  0  0  0  0  0  0  0
    8.3606   10.3191   24.8091 C   0  0  0  0  0  0  0  0  0  0  0  0
    7.3451    9.5712   25.4020 C   0  0  0  0  0  0  0  0  0  0  0  0
    6.5002   10.1952   26.3258 C   0  0  0  0  0  0  0  0  0  0  0  0
    6.6635   11.5349   26.6562 C   0  0  0  0  0  0  0  0  0  0  0  0
    7.6942   12.2765   26.0835 C   0  0  0  0  0  0  0  0  0  0  0  0
    8.5529   11.6524   25.1610 C   0  0  0  0  0  0  0  0  0  0  0  0
   10.9190   14.9733   19.5109 C   0  0  0  0  0  0  0  0  0  0  0  0
   11.7016   14.4865   18.3878 C   0  0  0  0  0  0  0  0  0  0  0  0
    9.8705   15.8170   19.3074 O   0  0  0  0  0  0  0  0  0  0  0  0
  1  2  1  0
  2  3  2  0
  3  4  1  0
  4  5  1  0
  5  6  1  0
  6  7  1  0
  7  8  1  0
  8  9  2  0
  8 10  1  0
 10 11  2  0
 11 12  1  0
 12 13  1  0
 13 14  1  0
 13 15  1  0
 13 16  1  0
 12 17  1  0
 17 18  2  0
 18 19  1  0
 19 20  2  0
 20 21  1  0
 21 22  2  0
  4 23  2  0
 23 24  1  0
 23 25  1  0
 25  2  1  0
 22 10  1  0
 22 17  1  0
M  END
>  <energy_score>  (31) 
-20.253316

>  <fragmenstein_runtime>  (31) 
nan

>  <HIPPO Pose ID>  (31) 
497911

>  <fragmenstein_error>  (31) 
nan

>  <alias>  (31) 
None

>  <orig_smiles>  (31) 
nan

>  <smiles>  (31) 
None

>  <inchikey>  (31) 
None

>  <HIPPO Compound ID>  (31) 
289845

>  <fragmenstein_mode>  (31) 
nan

>  <fragmenstein_outcome>  (31) 
nan

>  <distance_score>  (31) 
0.679869

>  <subsites>  (31) 
None

>  <scratch_subdir>  (31) 
nan

>  <inspiration_score>  (31) 
None

>  <name>  (31) 
P497911

>  <ref_mols>  (31) 
A2290a,A3436a

>  <ref_pdb>  (31) 
A2290a

>  <exports>  (31) 
['/opt/xchem-fragalysis-2/maxwin/openbind-hippo/a71ev2a/cycle_01/syndirella/elabs/openbind_a71ev2a_c1_elab_chemspace_filtered.sdf', '/opt/xchem-fragalysis-2/maxwin/openbind-hippo/a71ev2a/cycle_01/syndirella/elabs/ASAP-0031281-001_elabs.sdf']

>  <Energy>  (31) 
nan

>  <tags>  (31) 
openbind_a71ev2a_c1_elabs_filtered

>  <GNINA pK>  (31) 
nan

$$$$
P497912
     RDKit          3D

 25 27  0  0  0  0  0  0  0  0999 V2000
   12.6386   12.9903   24.1297 C   0  0  0  0  0  0  0  0  0  0  0  0
   12.8187   13.0531   22.7188 O   0  0  0  0  0  0  0  0  0  0  0  0
   12.5370   14.2467   22.1353 C   0  0  0  0  0  0  0  0  0  0  0  0
   13.4140   15.0183   21.7766 O   0  0  0  0  0  0  0  0  0  0  0  0
   11.0728   14.5314   21.9021 C   0  0  1  0  0  0  0  0  0  0  0  0
   10.8023   14.6610   20.4119 C   0  0  0  0  0  0  0  0  0  0  0  0
    9.9445   15.8219   20.0754 C   0  0  0  0  0  0  0  0  0  0  0  0
    9.8592   16.5328   18.9023 C   0  0  0  0  0  0  0  0  0  0  0  0
    9.0419   17.5988   19.1007 O   0  0  0  0  0  0  0  0  0  0  0  0
    8.6862   17.4876   20.4082 C   0  0  0  0  0  0  0  0  0  0  0  0
    9.1352   16.4088   21.0094 N   0  0  0  0  0  0  0  0  0  0  0  0
   10.2508   13.5242   22.5218 N   0  0  0  0  0  0  0  0  0  0  0  0
    9.4772   13.5466   23.8349 C   0  0  0  0  0  0  0  0  0  0  0  0
    9.3117   14.4070   24.5975 O   0  0  0  0  0  0  0  0  0  0  0  0
    9.0001   12.1962   24.0972 C   0  0  0  0  0  0  0  0  0  0  0  0
    9.4746   11.1440   23.4044 N   0  0  0  0  0  0  0  0  0  0  0  0
    8.8777   10.0900   23.9806 N   0  0  0  0  0  0  0  0  0  0  0  0
    9.2638    8.7666   23.5608 C   0  0  0  0  0  0  0  0  0  0  0  0
    7.9832   10.4367   24.9635 C   0  0  0  0  0  0  0  0  0  0  0  0
    7.0952    9.6986   25.7433 C   0  0  0  0  0  0  0  0  0  0  0  0
    6.3303   10.3750   26.6951 C   0  0  0  0  0  0  0  0  0  0  0  0
    6.4507   11.7476   26.8495 C   0  0  0  0  0  0  0  0  0  0  0  0
    5.7143   12.3662   27.7821 F   0  0  0  0  0  0  0  0  0  0  0  0
    7.3146   12.4920   26.0572 C   0  0  0  0  0  0  0  0  0  0  0  0
    8.0784   11.8153   25.0908 C   0  0  0  0  0  0  0  0  0  0  0  0
  1  2  1  0
  2  3  1  0
  3  4  2  0
  3  5  1  0
  5  6  1  6
  6  7  1  0
  7  8  2  0
  8  9  1  0
  9 10  1  0
 10 11  2  0
  5 12  1  0
 12 13  1  0
 13 14  2  0
 13 15  1  0
 15 16  2  0
 16 17  1  0
 17 18  1  0
 17 19  1  0
 19 20  2  0
 20 21  1  0
 21 22  2  0
 22 23  1  0
 22 24  1  0
 24 25  2  0
 11  7  1  0
 25 15  1  0
 25 19  1  0
M  END
>  <energy_score>  (32) 
-20.470727

>  <fragmenstein_runtime>  (32) 
nan

>  <HIPPO Pose ID>  (32) 
497912

>  <fragmenstein_error>  (32) 
nan

>  <alias>  (32) 
None

>  <orig_smiles>  (32) 
nan

>  <smiles>  (32) 
None

>  <inchikey>  (32) 
None

>  <HIPPO Compound ID>  (32) 
289846

>  <fragmenstein_mode>  (32) 
nan

>  <fragmenstein_outcome>  (32) 
nan

>  <distance_score>  (32) 
1.009087

>  <subsites>  (32) 
None

>  <scratch_subdir>  (32) 
nan

>  <inspiration_score>  (32) 
None

>  <name>  (32) 
P497912

>  <ref_mols>  (32) 
A2290a,A3436a

>  <ref_pdb>  (32) 
A2290a

>  <exports>  (32) 
['/opt/xchem-fragalysis-2/maxwin/openbind-hippo/a71ev2a/cycle_01/syndirella/elabs/openbind_a71ev2a_c1_elab_chemspace_filtered.sdf', '/opt/xchem-fragalysis-2/maxwin/openbind-hippo/a71ev2a/cycle_01/syndirella/elabs/ASAP-0031281-001_elabs.sdf']

>  <Energy>  (32) 
nan

>  <tags>  (32) 
openbind_a71ev2a_c1_elabs_filtered

>  <GNINA pK>  (32) 
nan

$$$$
P497913
     RDKit          3D

 26 28  0  0  0  0  0  0  0  0999 V2000
    3.6177   12.3514   28.8581 C   0  0  0  0  0  0  0  0  0  0  0  0
    4.4823   11.7259   27.9093 O   0  0  0  0  0  0  0  0  0  0  0  0
    5.7085   12.3025   27.8279 C   0  0  0  0  0  0  0  0  0  0  0  0
    6.1033   13.2523   28.4843 O   0  0  0  0  0  0  0  0  0  0  0  0
    6.5326   11.6147   26.8050 C   0  0  0  0  0  0  0  0  0  0  0  0
    6.3217   10.2754   26.4749 C   0  0  0  0  0  0  0  0  0  0  0  0
    7.1258    9.6336   25.5283 C   0  0  0  0  0  0  0  0  0  0  0  0
    8.1414   10.3592   24.9102 C   0  0  0  0  0  0  0  0  0  0  0  0
    8.3848   11.6858   25.2481 C   0  0  0  0  0  0  0  0  0  0  0  0
    7.5772   12.3295   26.2049 C   0  0  0  0  0  0  0  0  0  0  0  0
    9.5222   12.0385   24.4937 C   0  0  0  0  0  0  0  0  0  0  0  0
   10.3048   13.2730   24.5687 C   0  0  0  0  0  0  0  0  0  0  0  0
   10.1188   14.0935   25.3719 O   0  0  0  0  0  0  0  0  0  0  0  0
   11.3324   13.2045   23.4436 N   0  0  0  0  0  0  0  0  0  0  0  0
   12.2847   14.1609   23.0042 C   0  0  0  0  0  0  0  0  0  0  0  0
   12.3597   14.2710   21.5078 C   0  0  0  0  0  0  0  0  0  0  0  0
   11.1611   14.8651   20.8849 C   0  0  0  0  0  0  0  0  0  0  0  0
   10.2327   15.5992   21.5529 N   0  0  0  0  0  0  0  0  0  0  0  0
    9.5682   16.2199   20.5983 C   0  0  0  0  0  0  0  0  0  0  0  0
    8.6053   17.3253   20.7339 C   0  0  0  0  0  0  0  0  0  0  0  0
    9.8854   15.8131   19.3344 O   0  0  0  0  0  0  0  0  0  0  0  0
   10.9238   14.9588   19.5433 C   0  0  0  0  0  0  0  0  0  0  0  0
   11.7073   14.4804   18.4166 C   0  0  0  0  0  0  0  0  0  0  0  0
    9.8968   11.0505   23.6587 N   0  0  0  0  0  0  0  0  0  0  0  0
    9.0677   10.0403   23.9459 N   0  0  0  0  0  0  0  0  0  0  0  0
    9.2494    8.7993   23.2317 C   0  0  0  0  0  0  0  0  0  0  0  0
  1  2  1  0
  2  3  1  0
  3  4  2  0
  3  5  1  0
  5  6  2  0
  6  7  1  0
  7  8  2  0
  8  9  1  0
  9 10  2  0
  9 11  1  0
 11 12  1  0
 12 13  2  0
 12 14  1  0
 14 15  1  0
 15 16  1  0
 16 17  1  0
 17 18  1  0
 18 19  2  0
 19 20  1  0
 19 21  1  0
 21 22  1  0
 22 23  1  0
 11 24  2  0
 24 25  1  0
 25 26  1  0
 10  5  1  0
 22 17  2  0
 25  8  1  0
M  END
>  <energy_score>  (33) 
-17.487787

>  <fragmenstein_runtime>  (33) 
nan

>  <HIPPO Pose ID>  (33) 
497913

>  <fragmenstein_error>  (33) 
nan

>  <alias>  (33) 
None

>  <orig_smiles>  (33) 
nan

>  <smiles>  (33) 
None

>  <inchikey>  (33) 
None

>  <HIPPO Compound ID>  (33) 
289847

>  <fragmenstein_mode>  (33) 
nan

>  <fragmenstein_outcome>  (33) 
nan

>  <distance_score>  (33) 
0.726927

>  <subsites>  (33) 
None

>  <scratch_subdir>  (33) 
nan

>  <inspiration_score>  (33) 
None

>  <name>  (33) 
P497913

>  <ref_mols>  (33) 
A2290a,A3436a

>  <ref_pdb>  (33) 
A2290a

>  <exports>  (33) 
['/opt/xchem-fragalysis-2/maxwin/openbind-hippo/a71ev2a/cycle_01/syndirella/elabs/openbind_a71ev2a_c1_elab_chemspace_filtered.sdf', '/opt/xchem-fragalysis-2/maxwin/openbind-hippo/a71ev2a/cycle_01/syndirella/elabs/ASAP-0031281-001_elabs.sdf']

>  <Energy>  (33) 
nan

>  <tags>  (33) 
openbind_a71ev2a_c1_elabs_filtered

>  <GNINA pK>  (33) 
nan

$$$$
P497914
     RDKit          3D

 26 28  0  0  0  0  0  0  0  0999 V2000
    8.9967   16.4134   28.2013 C   0  0  0  0  0  0  0  0  0  0  0  0
    9.1574   15.4475   27.1589 O   0  0  0  0  0  0  0  0  0  0  0  0
    8.0798   14.6008   27.0540 C   0  0  0  0  0  0  0  0  0  0  0  0
    7.0509   14.7474   27.7088 O   0  0  0  0  0  0  0  0  0  0  0  0
    8.3094   13.4463   26.1697 C   0  0  0  0  0  0  0  0  0  0  0  0
    9.3455   13.3315   25.3171 N   0  0  0  0  0  0  0  0  0  0  0  0
    9.2337   12.0791   24.8113 N   0  0  0  0  0  0  0  0  0  0  0  0
   10.1354   11.5911   23.7953 C   0  0  0  0  0  0  0  0  0  0  0  0
   11.5055   12.2247   23.8667 C   0  0  0  0  0  0  0  0  0  0  0  0
   12.4401   11.6835   24.2899 O   0  0  0  0  0  0  0  0  0  0  0  0
   11.3707   13.5870   23.2006 N   0  0  0  0  0  0  0  0  0  0  0  0
   12.3537   14.5269   22.8294 C   0  0  0  0  0  0  0  0  0  0  0  0
   12.4467   14.5283   21.3411 C   0  0  0  0  0  0  0  0  0  0  0  0
   11.1872   15.0036   20.7425 C   0  0  0  0  0  0  0  0  0  0  0  0
   10.2294   15.6853   21.4232 N   0  0  0  0  0  0  0  0  0  0  0  0
    9.5424   16.2822   20.4724 C   0  0  0  0  0  0  0  0  0  0  0  0
    8.5834   17.3877   20.6271 C   0  0  0  0  0  0  0  0  0  0  0  0
    9.8389   15.8483   19.2075 O   0  0  0  0  0  0  0  0  0  0  0  0
   10.9028   15.0216   19.4146 C   0  0  0  0  0  0  0  0  0  0  0  0
   11.7010   14.5079   18.3170 C   0  0  0  0  0  0  0  0  0  0  0  0
    8.1848   11.3672   25.3192 C   0  0  0  0  0  0  0  0  0  0  0  0
    7.7529   10.0598   25.1133 C   0  0  0  0  0  0  0  0  0  0  0  0
    6.6054    9.6751   25.8044 C   0  0  0  0  0  0  0  0  0  0  0  0
    5.9412   10.5251   26.6790 C   0  0  0  0  0  0  0  0  0  0  0  0
    6.3979   11.8214   26.8764 C   0  0  0  0  0  0  0  0  0  0  0  0
    7.5372   12.2500   26.1764 C   0  0  0  0  0  0  0  0  0  0  0  0
  1  2  1  0
  2  3  1  0
  3  4  2  0
  3  5  1  0
  5  6  2  0
  6  7  1  0
  7  8  1  0
  8  9  1  0
  9 10  2  0
  9 11  1  0
 11 12  1  0
 12 13  1  0
 13 14  1  0
 14 15  1  0
 15 16  2  0
 16 17  1  0
 16 18  1  0
 18 19  1  0
 19 20  1  0
  7 21  1  0
 21 22  2  0
 22 23  1  0
 23 24  2  0
 24 25  1  0
 25 26  2  0
 26  5  1  0
 19 14  2  0
 26 21  1  0
M  END
>  <energy_score>  (34) 
-21.538638

>  <fragmenstein_runtime>  (34) 
nan

>  <HIPPO Pose ID>  (34) 
497914

>  <fragmenstein_error>  (34) 
nan

>  <alias>  (34) 
None

>  <orig_smiles>  (34) 
nan

>  <smiles>  (34) 
None

>  <inchikey>  (34) 
None

>  <HIPPO Compound ID>  (34) 
289848

>  <fragmenstein_mode>  (34) 
nan

>  <fragmenstein_outcome>  (34) 
nan

>  <distance_score>  (34) 
1.462321

>  <subsites>  (34) 
None

>  <scratch_subdir>  (34) 
nan

>  <inspiration_score>  (34) 
None

>  <name>  (34) 
P497914

>  <ref_mols>  (34) 
A2290a,A3436a

>  <ref_pdb>  (34) 
A2290a

>  <exports>  (34) 
['/opt/xchem-fragalysis-2/maxwin/openbind-hippo/a71ev2a/cycle_01/syndirella/elabs/openbind_a71ev2a_c1_elab_chemspace_filtered.sdf', '/opt/xchem-fragalysis-2/maxwin/openbind-hippo/a71ev2a/cycle_01/syndirella/elabs/ASAP-0031281-001_elabs.sdf']

>  <Energy>  (34) 
nan

>  <tags>  (34) 
openbind_a71ev2a_c1_elabs_filtered

>  <GNINA pK>  (34) 
nan

$$$$
P497915
     RDKit          3D

 27 29  0  0  0  0  0  0  0  0999 V2000
   14.0776   12.2866   25.1599 C   0  0  0  0  0  0  0  0  0  0  0  0
   13.0720   13.2588   24.8092 O   0  0  0  0  0  0  0  0  0  0  0  0
   12.7895   13.2269   23.4835 C   0  0  0  0  0  0  0  0  0  0  0  0
   13.2773   12.3754   22.7652 O   0  0  0  0  0  0  0  0  0  0  0  0
   11.7732   14.2005   22.9492 C   0  0  1  0  0  0  0  0  0  0  0  0
   12.0084   14.3943   21.4542 C   0  0  0  0  0  0  0  0  0  0  0  0
   10.8980   15.0512   20.7405 C   0  0  0  0  0  0  0  0  0  0  0  0
   10.6424   15.0931   19.3924 C   0  0  0  0  0  0  0  0  0  0  0  0
    9.6516   16.0019   19.1775 O   0  0  0  0  0  0  0  0  0  0  0  0
    9.3465   16.4485   20.4225 C   0  0  0  0  0  0  0  0  0  0  0  0
   10.0231   15.8725   21.3863 N   0  0  0  0  0  0  0  0  0  0  0  0
   10.6680   13.3796   23.3066 N   0  0  0  0  0  0  0  0  0  0  0  0
    9.7284   13.4523   24.4962 C   0  0  0  0  0  0  0  0  0  0  0  0
    9.6479   14.2396   25.3460 O   0  0  0  0  0  0  0  0  0  0  0  0
    8.9419   12.2272   24.4549 C   0  0  0  0  0  0  0  0  0  0  0  0
    9.3488   11.2096   23.6695 N   0  0  0  0  0  0  0  0  0  0  0  0
    8.6717   10.1544   24.1326 N   0  0  0  0  0  0  0  0  0  0  0  0
    9.0522    8.8392   23.6772 C   0  0  0  0  0  0  0  0  0  0  0  0
    7.7388   10.4888   25.0858 C   0  0  0  0  0  0  0  0  0  0  0  0
    6.7915    9.7407   25.7805 C   0  0  0  0  0  0  0  0  0  0  0  0
    5.9884   10.3957   26.7145 C   0  0  0  0  0  0  0  0  0  0  0  0
    6.1494   11.7634   26.9461 C   0  0  0  0  0  0  0  0  0  0  0  0
    5.2894   12.4229   27.9262 N   0  0  0  0  0  0  0  0  0  0  0  0
    4.1615   11.9428   28.1146 O   0  0  0  0  0  0  0  0  0  0  0  0
    5.7531   13.4019   28.5274 O   0  0  0  0  0  0  0  0  0  0  0  0
    7.1130   12.5148   26.2688 C   0  0  0  0  0  0  0  0  0  0  0  0
    7.8919   11.8535   25.3061 C   0  0  0  0  0  0  0  0  0  0  0  0
  1  2  1  0
  2  3  1  0
  3  4  2  0
  3  5  1  0
  5  6  1  6
  6  7  1  0
  7  8  2  0
  8  9  1  0
  9 10  1  0
 10 11  2  0
  5 12  1  0
 12 13  1  0
 13 14  2  0
 13 15  1  0
 15 16  2  0
 16 17  1  0
 17 18  1  0
 17 19  1  0
 19 20  2  0
 20 21  1  0
 21 22  2  0
 22 23  1  0
 23 24  2  0
 23 25  1  0
 22 26  1  0
 26 27  2  0
 11  7  1  0
 27 15  1  0
 27 19  1  0
M  CHG  2  23   1  25  -1
M  END
>  <energy_score>  (35) 
-14.732368

>  <fragmenstein_runtime>  (35) 
nan

>  <HIPPO Pose ID>  (35) 
497915

>  <fragmenstein_error>  (35) 
nan

>  <alias>  (35) 
None

>  <orig_smiles>  (35) 
nan

>  <smiles>  (35) 
None

>  <inchikey>  (35) 
None

>  <HIPPO Compound ID>  (35) 
289849

>  <fragmenstein_mode>  (35) 
nan

>  <fragmenstein_outcome>  (35) 
nan

>  <distance_score>  (35) 
0.855717

>  <subsites>  (35) 
None

>  <scratch_subdir>  (35) 
nan

>  <inspiration_score>  (35) 
None

>  <name>  (35) 
P497915

>  <ref_mols>  (35) 
A2290a,A3436a

>  <ref_pdb>  (35) 
A2290a

>  <exports>  (35) 
['/opt/xchem-fragalysis-2/maxwin/openbind-hippo/a71ev2a/cycle_01/bulkdock/openbind_a71ev2a_c1_elab_chemspace.sdf', '/opt/xchem-fragalysis-2/maxwin/openbind-hippo/a71ev2a/cycle_01/syndirella/elabs/openbind_a71ev2a_c1_elab_chemspace_filtered.sdf', '/opt/xchem-fragalysis-2/maxwin/openbind-hippo/a71ev2a/cycle_01/syndirella/elabs/ASAP-0031281-001_elabs.sdf']

>  <Energy>  (35) 
nan

>  <tags>  (35) 
openbind_a71ev2a_c1_elabs_filtered

>  <GNINA pK>  (35) 
nan

$$$$
P497916
     RDKit          3D

 27 30  0  0  0  0  0  0  0  0999 V2000
    9.1433    8.7811   23.5959 C   0  0  0  0  0  0  0  0  0  0  0  0
    8.8877   10.1020   24.1132 N   0  0  0  0  0  0  0  0  0  0  0  0
    9.7089   11.0993   23.7583 N   0  0  0  0  0  0  0  0  0  0  0  0
    9.3485   12.1184   24.5633 C   0  0  0  0  0  0  0  0  0  0  0  0
   10.1577   13.3356   24.6337 C   0  0  0  0  0  0  0  0  0  0  0  0
    9.9976   14.1520   25.4462 O   0  0  0  0  0  0  0  0  0  0  0  0
   11.2138   13.2217   23.5419 N   0  0  0  0  0  0  0  0  0  0  0  0
   12.2369   14.1217   23.1520 C   0  0  0  0  0  0  0  0  0  0  0  0
   12.6131   14.0382   21.7038 C   0  0  0  0  0  0  0  0  0  0  0  0
   11.6207   14.5434   20.7664 C   0  0  0  0  0  0  0  0  0  0  0  0
   11.6683   14.4138   19.4058 C   0  0  0  0  0  0  0  0  0  0  0  0
   10.6567   15.1176   18.8945 O   0  0  0  0  0  0  0  0  0  0  0  0
   10.1060   15.7287   19.9676 C   0  0  0  0  0  0  0  0  0  0  0  0
    9.3139   16.8633   19.6271 C   0  0  0  0  0  0  0  0  0  0  0  0
    9.0752   17.1870   18.3003 C   0  0  0  0  0  0  0  0  0  0  0  0
    8.1964   18.1879   17.9999 C   0  0  0  0  0  0  0  0  0  0  0  0
    7.6634   18.9525   19.0120 C   0  0  0  0  0  0  0  0  0  0  0  0
    8.0655   18.7698   20.3033 C   0  0  0  0  0  0  0  0  0  0  0  0
    8.8137   17.6733   20.6218 C   0  0  0  0  0  0  0  0  0  0  0  0
   10.5776   15.3440   21.1336 N   0  0  0  0  0  0  0  0  0  0  0  0
    8.2128   11.8051   25.3355 C   0  0  0  0  0  0  0  0  0  0  0  0
    7.4273   12.4918   26.2758 C   0  0  0  0  0  0  0  0  0  0  0  0
    6.4019   11.7980   26.9053 C   0  0  0  0  0  0  0  0  0  0  0  0
    5.6495   12.4249   27.8199 F   0  0  0  0  0  0  0  0  0  0  0  0
    6.1540   10.4615   26.6289 C   0  0  0  0  0  0  0  0  0  0  0  0
    6.9275    9.7730   25.6928 C   0  0  0  0  0  0  0  0  0  0  0  0
    7.9541   10.4686   25.0525 C   0  0  0  0  0  0  0  0  0  0  0  0
  1  2  1  0
  2  3  1  0
  3  4  2  0
  4  5  1  0
  5  6  2  0
  5  7  1  0
  7  8  1  0
  8  9  1  0
  9 10  1  0
 10 11  2  0
 11 12  1  0
 12 13  1  0
 13 14  1  0
 14 15  2  0
 15 16  1  0
 16 17  2  0
 17 18  1  0
 18 19  2  0
 13 20  2  0
  4 21  1  0
 21 22  2  0
 22 23  1  0
 23 24  1  0
 23 25  2  0
 25 26  1  0
 26 27  2  0
 27  2  1  0
 20 10  1  0
 27 21  1  0
 19 14  1  0
M  END
>  <energy_score>  (36) 
-16.599524

>  <fragmenstein_runtime>  (36) 
nan

>  <HIPPO Pose ID>  (36) 
497916

>  <fragmenstein_error>  (36) 
nan

>  <alias>  (36) 
None

>  <orig_smiles>  (36) 
nan

>  <smiles>  (36) 
None

>  <inchikey>  (36) 
None

>  <HIPPO Compound ID>  (36) 
289851

>  <fragmenstein_mode>  (36) 
nan

>  <fragmenstein_outcome>  (36) 
nan

>  <distance_score>  (36) 
1.008405

>  <subsites>  (36) 
None

>  <scratch_subdir>  (36) 
nan

>  <inspiration_score>  (36) 
None

>  <name>  (36) 
P497916

>  <ref_mols>  (36) 
A2290a,A3436a

>  <ref_pdb>  (36) 
A2290a

>  <exports>  (36) 
['/opt/xchem-fragalysis-2/maxwin/openbind-hippo/a71ev2a/cycle_01/syndirella/elabs/openbind_a71ev2a_c1_elab_chemspace_filtered.sdf', '/opt/xchem-fragalysis-2/maxwin/openbind-hippo/a71ev2a/cycle_01/syndirella/elabs/ASAP-0031281-001_elabs.sdf']

>  <Energy>  (36) 
nan

>  <tags>  (36) 
openbind_a71ev2a_c1_elabs_filtered

>  <GNINA pK>  (36) 
nan

$$$$
P497917
     RDKit          3D

 27 30  0  0  0  0  0  0  0  0999 V2000
    8.5996   17.4321   20.6384 C   0  0  0  0  0  0  0  0  0  0  0  0
    9.5315   16.3050   20.4817 C   0  0  0  0  0  0  0  0  0  0  0  0
   10.1449   15.6304   21.4263 N   0  0  0  0  0  0  0  0  0  0  0  0
   11.0285   14.8333   20.7582 C   0  0  0  0  0  0  0  0  0  0  0  0
   12.1098   14.1314   21.4847 C   0  0  0  0  0  0  0  0  0  0  0  0
   12.1073   14.3898   22.9870 C   0  0  0  0  0  0  0  0  0  0  0  0
   10.9954   13.8141   23.6958 N   0  0  0  0  0  0  0  0  0  0  0  0
   10.4805   14.0661   25.1317 C   0  0  0  0  0  0  0  0  0  0  0  0
   10.9235   14.7230   25.9911 O   0  0  0  0  0  0  0  0  0  0  0  0
    9.2919   13.2171   25.3064 C   0  0  0  0  0  0  0  0  0  0  0  0
    9.1318   12.2114   24.4401 N   0  0  0  0  0  0  0  0  0  0  0  0
    8.2053   11.4442   25.0029 N   0  0  0  0  0  0  0  0  0  0  0  0
    8.0137   10.1370   24.4611 C   0  0  0  0  0  0  0  0  0  0  0  0
    9.3169    9.5605   24.1107 C   0  0  2  0  0  0  0  0  0  0  0  0
    9.9884   10.1752   22.9145 C   0  0  0  0  0  0  0  0  0  0  0  0
   10.4536    9.0422   22.2262 N   0  0  0  0  0  0  0  0  0  0  0  0
   10.3245    8.0202   23.1092 C   0  0  0  0  0  0  0  0  0  0  0  0
   11.1608    7.1787   23.3384 O   0  0  0  0  0  0  0  0  0  0  0  0
    9.2088    8.1984   23.8406 O   0  0  0  0  0  0  0  0  0  0  0  0
    7.5788   11.9805   26.0641 C   0  0  0  0  0  0  0  0  0  0  0  0
    6.5228   11.5080   26.8411 C   0  0  0  0  0  0  0  0  0  0  0  0
    6.1336   12.3193   27.8960 C   0  0  0  0  0  0  0  0  0  0  0  0
    6.7847   13.5281   28.1484 C   0  0  0  0  0  0  0  0  0  0  0  0
    7.8557   13.9708   27.3601 C   0  0  0  0  0  0  0  0  0  0  0  0
    8.2582   13.1781   26.2826 C   0  0  0  0  0  0  0  0  0  0  0  0
   10.8005   14.9487   19.4085 C   0  0  0  0  0  0  0  0  0  0  0  0
    9.8315   15.8910   19.2192 O   0  0  0  0  0  0  0  0  0  0  0  0
  1  2  1  0
  2  3  2  0
  3  4  1  0
  4  5  1  0
  5  6  1  0
  6  7  1  0
  7  8  1  0
  8  9  2  0
  8 10  1  0
 10 11  2  0
 11 12  1  0
 12 13  1  0
 14 13  1  6
 14 15  1  0
 15 16  1  0
 16 17  1  0
 17 18  2  0
 17 19  1  0
 12 20  1  0
 20 21  2  0
 21 22  1  0
 22 23  2  0
 23 24  1  0
 24 25  2  0
  4 26  2  0
 26 27  1  0
 27  2  1  0
 25 10  1  0
 19 14  1  0
 25 20  1  0
M  END
>  <energy_score>  (37) 
-25.321002

>  <fragmenstein_runtime>  (37) 
nan

>  <HIPPO Pose ID>  (37) 
497917

>  <fragmenstein_error>  (37) 
nan

>  <alias>  (37) 
None

>  <orig_smiles>  (37) 
nan

>  <smiles>  (37) 
None

>  <inchikey>  (37) 
None

>  <HIPPO Compound ID>  (37) 
289854

>  <fragmenstein_mode>  (37) 
nan

>  <fragmenstein_outcome>  (37) 
nan

>  <distance_score>  (37) 
1.76231

>  <subsites>  (37) 
None

>  <scratch_subdir>  (37) 
nan

>  <inspiration_score>  (37) 
None

>  <name>  (37) 
P497917

>  <ref_mols>  (37) 
A2290a,A3436a

>  <ref_pdb>  (37) 
A2290a

>  <exports>  (37) 
['/opt/xchem-fragalysis-2/maxwin/openbind-hippo/a71ev2a/cycle_01/syndirella/elabs/openbind_a71ev2a_c1_elab_chemspace_filtered.sdf', '/opt/xchem-fragalysis-2/maxwin/openbind-hippo/a71ev2a/cycle_01/syndirella/elabs/ASAP-0031281-001_elabs.sdf']

>  <Energy>  (37) 
nan

>  <tags>  (37) 
openbind_a71ev2a_c1_elabs_filtered

>  <GNINA pK>  (37) 
nan

$$$$
P497918
     RDKit          3D

 27 30  0  0  0  0  0  0  0  0999 V2000
    8.5858   17.4353   20.6486 C   0  0  0  0  0  0  0  0  0  0  0  0
    9.5384   16.3333   20.4474 C   0  0  0  0  0  0  0  0  0  0  0  0
   10.2401   15.7014   21.3587 N   0  0  0  0  0  0  0  0  0  0  0  0
   11.0976   14.9147   20.6426 C   0  0  0  0  0  0  0  0  0  0  0  0
   12.2713   14.2872   21.2865 C   0  0  0  0  0  0  0  0  0  0  0  0
   12.2910   14.4723   22.7954 C   0  0  0  0  0  0  0  0  0  0  0  0
   11.2254   13.7807   23.4546 N   0  0  0  0  0  0  0  0  0  0  0  0
   10.6784   13.9175   24.8909 C   0  0  0  0  0  0  0  0  0  0  0  0
   10.9592   14.6691   25.7399 O   0  0  0  0  0  0  0  0  0  0  0  0
    9.6831   12.8580   25.0206 C   0  0  0  0  0  0  0  0  0  0  0  0
    9.9371   11.7563   24.3107 N   0  0  0  0  0  0  0  0  0  0  0  0
    8.9496   10.9349   24.5981 N   0  0  0  0  0  0  0  0  0  0  0  0
    8.9984    9.6261   24.0387 C   0  0  0  0  0  0  0  0  0  0  0  0
   10.1371    9.4433   23.0270 C   0  0  1  0  0  0  0  0  0  0  0  0
   11.0105    8.2835   23.3516 C   0  0  0  0  0  0  0  0  0  0  0  0
   10.0441    7.2774   23.2689 N   0  0  0  0  0  0  0  0  0  0  0  0
    9.2211    7.6468   22.2415 C   0  0  0  0  0  0  0  0  0  0  0  0
    8.3959    6.9333   21.7252 O   0  0  0  0  0  0  0  0  0  0  0  0
    9.5359    8.9093   21.8757 O   0  0  0  0  0  0  0  0  0  0  0  0
    8.0449   11.4122   25.4879 C   0  0  0  0  0  0  0  0  0  0  0  0
    6.9165   10.8285   26.0691 C   0  0  0  0  0  0  0  0  0  0  0  0
    6.1819   11.6302   26.9374 C   0  0  0  0  0  0  0  0  0  0  0  0
    6.5683   12.9451   27.2029 C   0  0  0  0  0  0  0  0  0  0  0  0
    7.7151   13.5033   26.6222 C   0  0  0  0  0  0  0  0  0  0  0  0
    8.4769   12.7127   25.7534 C   0  0  0  0  0  0  0  0  0  0  0  0
   10.7709   14.9934   19.3132 C   0  0  0  0  0  0  0  0  0  0  0  0
    9.7639   15.9027   19.1744 O   0  0  0  0  0  0  0  0  0  0  0  0
  1  2  1  0
  2  3  2  0
  3  4  1  0
  4  5  1  0
  5  6  1  0
  6  7  1  0
  7  8  1  0
  8  9  2  0
  8 10  1  0
 10 11  2  0
 11 12  1  0
 12 13  1  0
 14 13  1  1
 14 15  1  0
 15 16  1  0
 16 17  1  0
 17 18  2  0
 17 19  1  0
 12 20  1  0
 20 21  2  0
 21 22  1  0
 22 23  2  0
 23 24  1  0
 24 25  2  0
  4 26  2  0
 26 27  1  0
 27  2  1  0
 25 10  1  0
 19 14  1  0
 25 20  1  0
M  END
>  <energy_score>  (38) 
-27.498361

>  <fragmenstein_runtime>  (38) 
nan

>  <HIPPO Pose ID>  (38) 
497918

>  <fragmenstein_error>  (38) 
nan

>  <alias>  (38) 
None

>  <orig_smiles>  (38) 
nan

>  <smiles>  (38) 
None

>  <inchikey>  (38) 
None

>  <HIPPO Compound ID>  (38) 
289854

>  <fragmenstein_mode>  (38) 
nan

>  <fragmenstein_outcome>  (38) 
nan

>  <distance_score>  (38) 
1.182859

>  <subsites>  (38) 
None

>  <scratch_subdir>  (38) 
nan

>  <inspiration_score>  (38) 
None

>  <name>  (38) 
P497918

>  <ref_mols>  (38) 
A2290a,A3436a

>  <ref_pdb>  (38) 
A2290a

>  <exports>  (38) 
['/opt/xchem-fragalysis-2/maxwin/openbind-hippo/a71ev2a/cycle_01/bulkdock/openbind_a71ev2a_c1_elab_chemspace.sdf', '/opt/xchem-fragalysis-2/maxwin/openbind-hippo/a71ev2a/cycle_01/syndirella/elabs/openbind_a71ev2a_c1_elab_chemspace_filtered.sdf', '/opt/xchem-fragalysis-2/maxwin/openbind-hippo/a71ev2a/cycle_01/syndirella/elabs/ASAP-0031281-001_elabs.sdf']

>  <Energy>  (38) 
nan

>  <tags>  (38) 
openbind_a71ev2a_c1_elabs_filtered

>  <GNINA pK>  (38) 
nan

$$$$
P497919
     RDKit          3D

 27 29  0  0  0  0  0  0  0  0999 V2000
   14.4612   11.9699   24.9513 C   0  0  0  0  0  0  0  0  0  0  0  0
   13.6387   12.5309   23.9051 O   0  0  0  0  0  0  0  0  0  0  0  0
   12.7016   13.4311   24.2705 C   0  0  0  0  0  0  0  0  0  0  0  0
   12.4456   13.6798   25.4511 O   0  0  0  0  0  0  0  0  0  0  0  0
   11.8754   14.0616   23.1448 C   0  0  1  0  0  0  0  0  0  0  0  0
   12.2916   14.1067   21.6851 C   0  0  0  0  0  0  0  0  0  0  0  0
   11.2430   14.7876   20.8556 C   0  0  0  0  0  0  0  0  0  0  0  0
   11.0036   14.7767   19.5012 C   0  0  0  0  0  0  0  0  0  0  0  0
    9.9561   15.6159   19.2423 O   0  0  0  0  0  0  0  0  0  0  0  0
    9.6221   16.1120   20.4573 C   0  0  0  0  0  0  0  0  0  0  0  0
   10.3323   15.6316   21.4486 N   0  0  0  0  0  0  0  0  0  0  0  0
   10.7068   13.2855   23.3754 N   0  0  0  0  0  0  0  0  0  0  0  0
    9.5294   13.5241   24.3075 C   0  0  0  0  0  0  0  0  0  0  0  0
    9.2781   14.4315   24.9868 O   0  0  0  0  0  0  0  0  0  0  0  0
    8.7654   12.2921   24.2744 C   0  0  0  0  0  0  0  0  0  0  0  0
    9.1643   11.2852   23.4729 N   0  0  0  0  0  0  0  0  0  0  0  0
    8.5990   10.1948   24.0314 N   0  0  0  0  0  0  0  0  0  0  0  0
    9.1469    8.8683   23.7414 C   0  0  0  0  0  0  0  0  0  0  0  0
    8.7067    7.9978   24.6713 F   0  0  0  0  0  0  0  0  0  0  0  0
    8.7919    8.3681   22.5478 F   0  0  0  0  0  0  0  0  0  0  0  0
   10.5027    8.8829   23.7721 F   0  0  0  0  0  0  0  0  0  0  0  0
    7.6931   10.5212   25.0264 C   0  0  0  0  0  0  0  0  0  0  0  0
    6.8288    9.7637   25.8161 C   0  0  0  0  0  0  0  0  0  0  0  0
    6.0989   10.4101   26.8157 C   0  0  0  0  0  0  0  0  0  0  0  0
    6.2283   11.7770   27.0277 C   0  0  0  0  0  0  0  0  0  0  0  0
    7.0822   12.5338   26.2300 C   0  0  0  0  0  0  0  0  0  0  0  0
    7.7956   11.8941   25.2034 C   0  0  0  0  0  0  0  0  0  0  0  0
  1  2  1  0
  2  3  1  0
  3  4  2  0
  3  5  1  0
  5  6  1  6
  6  7  1  0
  7  8  2  0
  8  9  1  0
  9 10  1  0
 10 11  2  0
  5 12  1  0
 12 13  1  0
 13 14  2  0
 13 15  1  0
 15 16  2  0
 16 17  1  0
 17 18  1  0
 18 19  1  0
 18 20  1  0
 18 21  1  0
 17 22  1  0
 22 23  2  0
 23 24  1  0
 24 25  2  0
 25 26  1  0
 26 27  2  0
 11  7  1  0
 27 15  1  0
 27 22  1  0
M  END
>  <energy_score>  (39) 
-10.975621

>  <fragmenstein_runtime>  (39) 
nan

>  <HIPPO Pose ID>  (39) 
497919

>  <fragmenstein_error>  (39) 
nan

>  <alias>  (39) 
None

>  <orig_smiles>  (39) 
nan

>  <smiles>  (39) 
None

>  <inchikey>  (39) 
None

>  <HIPPO Compound ID>  (39) 
289855

>  <fragmenstein_mode>  (39) 
nan

>  <fragmenstein_outcome>  (39) 
nan

>  <distance_score>  (39) 
0.955289

>  <subsites>  (39) 
None

>  <scratch_subdir>  (39) 
nan

>  <inspiration_score>  (39) 
None

>  <name>  (39) 
P497919

>  <ref_mols>  (39) 
A2290a,A3436a

>  <ref_pdb>  (39) 
A2290a

>  <exports>  (39) 
['/opt/xchem-fragalysis-2/maxwin/openbind-hippo/a71ev2a/cycle_01/syndirella/elabs/openbind_a71ev2a_c1_elab_chemspace_filtered.sdf', '/opt/xchem-fragalysis-2/maxwin/openbind-hippo/a71ev2a/cycle_01/syndirella/elabs/ASAP-0031281-001_elabs.sdf']

>  <Energy>  (39) 
nan

>  <tags>  (39) 
openbind_a71ev2a_c1_elabs_filtered

>  <GNINA pK>  (39) 
nan

$$$$
P497920
     RDKit          3D

 27 30  0  0  0  0  0  0  0  0999 V2000
    9.1767    8.7729   23.5842 C   0  0  0  0  0  0  0  0  0  0  0  0
    8.9131   10.0918   24.1030 N   0  0  0  0  0  0  0  0  0  0  0  0
    9.7298   11.0929   23.7515 N   0  0  0  0  0  0  0  0  0  0  0  0
    9.3531   12.1140   24.5465 C   0  0  0  0  0  0  0  0  0  0  0  0
   10.1606   13.3316   24.6236 C   0  0  0  0  0  0  0  0  0  0  0  0
   10.0089   14.1372   25.4482 O   0  0  0  0  0  0  0  0  0  0  0  0
   11.2113   13.2265   23.5263 N   0  0  0  0  0  0  0  0  0  0  0  0
   12.2383   14.1250   23.1452 C   0  0  0  0  0  0  0  0  0  0  0  0
   12.6146   14.0453   21.6972 C   0  0  0  0  0  0  0  0  0  0  0  0
   11.6198   14.5481   20.7615 C   0  0  0  0  0  0  0  0  0  0  0  0
   11.6639   14.4157   19.4011 C   0  0  0  0  0  0  0  0  0  0  0  0
   10.6509   15.1187   18.8916 O   0  0  0  0  0  0  0  0  0  0  0  0
   10.1040   15.7322   19.9649 C   0  0  0  0  0  0  0  0  0  0  0  0
    9.3119   16.8666   19.6250 C   0  0  0  0  0  0  0  0  0  0  0  0
    8.8126   17.6762   20.6206 C   0  0  0  0  0  0  0  0  0  0  0  0
    8.0637   18.7721   20.3024 C   0  0  0  0  0  0  0  0  0  0  0  0
    7.6607   18.9543   19.0114 C   0  0  0  0  0  0  0  0  0  0  0  0
    8.1934   18.1902   17.9987 C   0  0  0  0  0  0  0  0  0  0  0  0
    9.0725   17.1896   18.2983 C   0  0  0  0  0  0  0  0  0  0  0  0
   10.5778   15.3494   21.1304 N   0  0  0  0  0  0  0  0  0  0  0  0
    8.2134   11.7959   25.3104 C   0  0  0  0  0  0  0  0  0  0  0  0
    7.4138   12.4824   26.2405 C   0  0  0  0  0  0  0  0  0  0  0  0
    6.3882   11.7845   26.8733 C   0  0  0  0  0  0  0  0  0  0  0  0
    5.2944   12.6736   28.1340 Br  0  0  0  0  0  0  0  0  0  0  0  0
    6.1643   10.4382   26.6058 C   0  0  0  0  0  0  0  0  0  0  0  0
    6.9529    9.7536   25.6786 C   0  0  0  0  0  0  0  0  0  0  0  0
    7.9714   10.4556   25.0353 C   0  0  0  0  0  0  0  0  0  0  0  0
  1  2  1  0
  2  3  1  0
  3  4  2  0
  4  5  1  0
  5  6  2  0
  5  7  1  0
  7  8  1  0
  8  9  1  0
  9 10  1  0
 10 11  2  0
 11 12  1  0
 12 13  1  0
 13 14  1  0
 14 15  2  0
 15 16  1  0
 16 17  2  0
 17 18  1  0
 18 19  2  0
 13 20  2  0
  4 21  1  0
 21 22  2  0
 22 23  1  0
 23 24  1  0
 23 25  2  0
 25 26  1  0
 26 27  2  0
 27  2  1  0
 20 10  1  0
 27 21  1  0
 19 14  1  0
M  END
>  <energy_score>  (40) 
-26.129523

>  <fragmenstein_runtime>  (40) 
nan

>  <HIPPO Pose ID>  (40) 
497920

>  <fragmenstein_error>  (40) 
nan

>  <alias>  (40) 
None

>  <orig_smiles>  (40) 
nan

>  <smiles>  (40) 
None

>  <inchikey>  (40) 
None

>  <HIPPO Compound ID>  (40) 
289856

>  <fragmenstein_mode>  (40) 
nan

>  <fragmenstein_outcome>  (40) 
nan

>  <distance_score>  (40) 
0.998738

>  <subsites>  (40) 
None

>  <scratch_subdir>  (40) 
nan

>  <inspiration_score>  (40) 
None

>  <name>  (40) 
P497920

>  <ref_mols>  (40) 
A2290a,A3436a

>  <ref_pdb>  (40) 
A2290a

>  <exports>  (40) 
['/opt/xchem-fragalysis-2/maxwin/openbind-hippo/a71ev2a/cycle_01/syndirella/elabs/openbind_a71ev2a_c1_elab_chemspace_filtered.sdf', '/opt/xchem-fragalysis-2/maxwin/openbind-hippo/a71ev2a/cycle_01/syndirella/elabs/ASAP-0031281-001_elabs.sdf']

>  <Energy>  (40) 
nan

>  <tags>  (40) 
openbind_a71ev2a_c1_elabs_filtered

>  <GNINA pK>  (40) 
nan

$$$$
P497921
     RDKit          3D

 27 30  0  0  0  0  0  0  0  0999 V2000
   12.6584   15.0792   22.0266 C   0  0  0  0  0  0  0  0  0  0  0  0
   11.6487   14.1034   21.5143 C   0  0  2  0  0  0  0  0  0  0  0  0
   11.0667   14.5143   20.1601 C   0  0  0  0  0  0  0  0  0  0  0  0
   10.1552   15.6780   20.0746 C   0  0  0  0  0  0  0  0  0  0  0  0
    9.8936   16.4672   18.9765 C   0  0  0  0  0  0  0  0  0  0  0  0
    9.0485   17.4598   19.3473 O   0  0  0  0  0  0  0  0  0  0  0  0
    8.8238   17.2050   20.6610 C   0  0  0  0  0  0  0  0  0  0  0  0
    9.4095   16.1232   21.1273 N   0  0  0  0  0  0  0  0  0  0  0  0
   10.6107   13.7693   22.4585 N   0  0  0  0  0  0  0  0  0  0  0  0
   10.5715   13.9035   23.9920 C   0  0  0  0  0  0  0  0  0  0  0  0
   11.3420   14.3771   24.7307 O   0  0  0  0  0  0  0  0  0  0  0  0
    9.3627   13.2009   24.4333 C   0  0  0  0  0  0  0  0  0  0  0  0
    8.8858   12.2523   23.6106 N   0  0  0  0  0  0  0  0  0  0  0  0
    8.1420   11.5168   24.4193 N   0  0  0  0  0  0  0  0  0  0  0  0
    8.0478   10.1368   24.1342 C   0  0  0  0  0  0  0  0  0  0  0  0
    9.3024    9.4165   24.3759 C   0  0  2  0  0  0  0  0  0  0  0  0
   10.4624    9.6993   23.4854 C   0  0  0  0  0  0  0  0  0  0  0  0
   10.0771    9.0342   22.3095 N   0  0  0  0  0  0  0  0  0  0  0  0
    9.2796    7.9966   22.6794 C   0  0  0  0  0  0  0  0  0  0  0  0
    8.8504    7.1154   21.9706 O   0  0  0  0  0  0  0  0  0  0  0  0
    9.0012    8.0895   24.0188 O   0  0  0  0  0  0  0  0  0  0  0  0
    7.7893   12.1026   25.5811 C   0  0  0  0  0  0  0  0  0  0  0  0
    6.9154   11.6930   26.5892 C   0  0  0  0  0  0  0  0  0  0  0  0
    6.8182   12.5296   27.6908 C   0  0  0  0  0  0  0  0  0  0  0  0
    7.5861   13.6925   27.7726 C   0  0  0  0  0  0  0  0  0  0  0  0
    8.4899   14.0569   26.7608 C   0  0  0  0  0  0  0  0  0  0  0  0
    8.5874   13.2423   25.6273 C   0  0  0  0  0  0  0  0  0  0  0  0
  2  1  1  1
  2  3  1  0
  3  4  1  0
  4  5  2  0
  5  6  1  0
  6  7  1  0
  7  8  2  0
  2  9  1  0
  9 10  1  0
 10 11  2  0
 10 12  1  0
 12 13  2  0
 13 14  1  0
 14 15  1  0
 16 15  1  6
 16 17  1  0
 17 18  1  0
 18 19  1  0
 19 20  2  0
 19 21  1  0
 14 22  1  0
 22 23  2  0
 23 24  1  0
 24 25  2  0
 25 26  1  0
 26 27  2  0
  8  4  1  0
 27 12  1  0
 21 16  1  0
 27 22  1  0
M  END
>  <energy_score>  (41) 
-23.589846

>  <fragmenstein_runtime>  (41) 
nan

>  <HIPPO Pose ID>  (41) 
497921

>  <fragmenstein_error>  (41) 
nan

>  <alias>  (41) 
None

>  <orig_smiles>  (41) 
nan

>  <smiles>  (41) 
None

>  <inchikey>  (41) 
None

>  <HIPPO Compound ID>  (41) 
289858

>  <fragmenstein_mode>  (41) 
nan

>  <fragmenstein_outcome>  (41) 
nan

>  <distance_score>  (41) 
1.617116

>  <subsites>  (41) 
None

>  <scratch_subdir>  (41) 
nan

>  <inspiration_score>  (41) 
None

>  <name>  (41) 
P497921

>  <ref_mols>  (41) 
A2290a,A3436a

>  <ref_pdb>  (41) 
A2290a

>  <exports>  (41) 
['/opt/xchem-fragalysis-2/maxwin/openbind-hippo/a71ev2a/cycle_01/syndirella/elabs/openbind_a71ev2a_c1_elab_chemspace_filtered.sdf', '/opt/xchem-fragalysis-2/maxwin/openbind-hippo/a71ev2a/cycle_01/syndirella/elabs/ASAP-0031281-001_elabs.sdf']

>  <Energy>  (41) 
nan

>  <tags>  (41) 
openbind_a71ev2a_c1_elabs_filtered

>  <GNINA pK>  (41) 
nan

$$$$
P497922
     RDKit          3D

 28 30  0  0  0  0  0  0  0  0999 V2000
    9.1968    8.9314   23.6274 C   0  0  0  0  0  0  0  0  0  0  0  0
    8.6000   10.2171   23.9049 N   0  0  0  0  0  0  0  0  0  0  0  0
    8.9109   11.2503   23.1066 N   0  0  0  0  0  0  0  0  0  0  0  0
    8.2213   12.2952   23.6156 C   0  0  0  0  0  0  0  0  0  0  0  0
    8.5142   13.6717   23.1807 C   0  0  0  0  0  0  0  0  0  0  0  0
    7.8935   14.5918   23.5218 O   0  0  0  0  0  0  0  0  0  0  0  0
    9.7854   13.5915   22.3395 N   0  0  0  0  0  0  0  0  0  0  0  0
   10.6228   14.6300   21.8151 C   0  0  2  0  0  0  0  0  0  0  0  0
   10.7157   14.7958   20.3269 C   0  0  0  0  0  0  0  0  0  0  0  0
    9.8915   15.9643   19.8925 C   0  0  0  0  0  0  0  0  0  0  0  0
    9.8790   16.6532   18.7047 C   0  0  0  0  0  0  0  0  0  0  0  0
    9.0470   17.7222   18.8209 O   0  0  0  0  0  0  0  0  0  0  0  0
    8.6272   17.6658   20.1118 C   0  0  0  0  0  0  0  0  0  0  0  0
    9.0768   16.6308   20.7816 N   0  0  0  0  0  0  0  0  0  0  0  0
   11.8809   14.2014   22.5281 C   0  0  0  0  0  0  0  0  0  0  0  0
   12.7727   13.5169   22.0616 O   0  0  0  0  0  0  0  0  0  0  0  0
   11.8111   14.6323   23.8316 O   0  0  0  0  0  0  0  0  0  0  0  0
   12.0252   13.7036   24.9265 C   0  0  0  0  0  0  0  0  0  0  0  0
   11.9260   14.5374   26.2284 C   0  0  0  0  0  0  0  0  0  0  0  0
   13.2815   12.8541   24.7205 C   0  0  0  0  0  0  0  0  0  0  0  0
   10.8396   12.7892   24.9695 C   0  0  0  0  0  0  0  0  0  0  0  0
    7.5668   11.9347   24.8191 C   0  0  0  0  0  0  0  0  0  0  0  0
    6.8664   12.6310   25.8199 C   0  0  0  0  0  0  0  0  0  0  0  0
    6.2932   11.8969   26.8496 C   0  0  0  0  0  0  0  0  0  0  0  0
    5.5994   12.5312   27.8043 F   0  0  0  0  0  0  0  0  0  0  0  0
    6.4023   10.5155   26.9012 C   0  0  0  0  0  0  0  0  0  0  0  0
    7.1424    9.8261   25.9400 C   0  0  0  0  0  0  0  0  0  0  0  0
    7.7615   10.5626   24.9343 C   0  0  0  0  0  0  0  0  0  0  0  0
  1  2  1  0
  2  3  1  0
  3  4  2  0
  4  5  1  0
  5  6  2  0
  5  7  1  0
  7  8  1  0
  8  9  1  6
  9 10  1  0
 10 11  2  0
 11 12  1  0
 12 13  1  0
 13 14  2  0
  8 15  1  0
 15 16  2  0
 15 17  1  0
 17 18  1  0
 18 19  1  0
 18 20  1  0
 18 21  1  0
  4 22  1  0
 22 23  2  0
 23 24  1  0
 24 25  1  0
 24 26  2  0
 26 27  1  0
 27 28  2  0
 28  2  1  0
 14 10  1  0
 28 22  1  0
M  END
>  <energy_score>  (42) 
-2.56079

>  <fragmenstein_runtime>  (42) 
nan

>  <HIPPO Pose ID>  (42) 
497922

>  <fragmenstein_error>  (42) 
nan

>  <alias>  (42) 
None

>  <orig_smiles>  (42) 
nan

>  <smiles>  (42) 
None

>  <inchikey>  (42) 
None

>  <HIPPO Compound ID>  (42) 
289860

>  <fragmenstein_mode>  (42) 
nan

>  <fragmenstein_outcome>  (42) 
nan

>  <distance_score>  (42) 
1.402286

>  <subsites>  (42) 
None

>  <scratch_subdir>  (42) 
nan

>  <inspiration_score>  (42) 
None

>  <name>  (42) 
P497922

>  <ref_mols>  (42) 
A2290a,A3436a

>  <ref_pdb>  (42) 
A2290a

>  <exports>  (42) 
['/opt/xchem-fragalysis-2/maxwin/openbind-hippo/a71ev2a/cycle_01/syndirella/elabs/openbind_a71ev2a_c1_elab_chemspace_filtered.sdf', '/opt/xchem-fragalysis-2/maxwin/openbind-hippo/a71ev2a/cycle_01/syndirella/elabs/ASAP-0031281-001_elabs.sdf']

>  <Energy>  (42) 
nan

>  <tags>  (42) 
openbind_a71ev2a_c1_elabs_filtered

>  <GNINA pK>  (42) 
nan

$$$$
P497923
     RDKit          3D

 28 31  0  0  0  0  0  0  0  0999 V2000
    9.1923    8.8342   23.2799 C   0  0  0  0  0  0  0  0  0  0  0  0
    8.9948   10.0765   23.9863 N   0  0  0  0  0  0  0  0  0  0  0  0
    9.8179   11.0914   23.6969 N   0  0  0  0  0  0  0  0  0  0  0  0
    9.4342   12.0782   24.5299 C   0  0  0  0  0  0  0  0  0  0  0  0
   10.2189   13.3076   24.6255 C   0  0  0  0  0  0  0  0  0  0  0  0
   10.0442   14.1147   25.4437 O   0  0  0  0  0  0  0  0  0  0  0  0
   11.2757   13.2208   23.5336 N   0  0  0  0  0  0  0  0  0  0  0  0
   12.2804   14.1404   23.1505 C   0  0  0  0  0  0  0  0  0  0  0  0
   12.6544   14.0604   21.7032 C   0  0  0  0  0  0  0  0  0  0  0  0
   11.6505   14.5444   20.7701 C   0  0  0  0  0  0  0  0  0  0  0  0
   11.6909   14.4044   19.4108 C   0  0  0  0  0  0  0  0  0  0  0  0
   10.6668   15.0911   18.9028 O   0  0  0  0  0  0  0  0  0  0  0  0
   10.1209   15.7052   19.9764 C   0  0  0  0  0  0  0  0  0  0  0  0
    9.3327   16.8406   19.6351 C   0  0  0  0  0  0  0  0  0  0  0  0
    8.8274   17.6522   20.6293 C   0  0  0  0  0  0  0  0  0  0  0  0
    8.0833   18.7492   20.3074 C   0  0  0  0  0  0  0  0  0  0  0  0
    7.7046   18.9134   19.0126 C   0  0  0  0  0  0  0  0  0  0  0  0
    6.7867   19.8198   18.7222 F   0  0  0  0  0  0  0  0  0  0  0  0
    8.2319   18.1569   17.9977 C   0  0  0  0  0  0  0  0  0  0  0  0
    9.1090   17.1622   18.3047 C   0  0  0  0  0  0  0  0  0  0  0  0
   10.6007   15.3323   21.1412 N   0  0  0  0  0  0  0  0  0  0  0  0
    8.3029   11.7218   25.2845 C   0  0  0  0  0  0  0  0  0  0  0  0
    7.5001   12.3687   26.2390 C   0  0  0  0  0  0  0  0  0  0  0  0
    6.4852   11.6404   26.8442 C   0  0  0  0  0  0  0  0  0  0  0  0
    5.7183   12.2268   27.7732 F   0  0  0  0  0  0  0  0  0  0  0  0
    6.2673   10.3076   26.5309 C   0  0  0  0  0  0  0  0  0  0  0  0
    7.0587    9.6618   25.5781 C   0  0  0  0  0  0  0  0  0  0  0  0
    8.0702   10.3899   24.9540 C   0  0  0  0  0  0  0  0  0  0  0  0
  1  2  1  0
  2  3  1  0
  3  4  2  0
  4  5  1  0
  5  6  2  0
  5  7  1  0
  7  8  1  0
  8  9  1  0
  9 10  1  0
 10 11  2  0
 11 12  1  0
 12 13  1  0
 13 14  1  0
 14 15  2  0
 15 16  1  0
 16 17  2  0
 17 18  1  0
 17 19  1  0
 19 20  2  0
 13 21  2  0
  4 22  1  0
 22 23  2  0
 23 24  1  0
 24 25  1  0
 24 26  2  0
 26 27  1  0
 27 28  2  0
 28  2  1  0
 21 10  1  0
 28 22  1  0
 20 14  1  0
M  END
>  <energy_score>  (43) 
-22.37753

>  <fragmenstein_runtime>  (43) 
nan

>  <HIPPO Pose ID>  (43) 
497923

>  <fragmenstein_error>  (43) 
nan

>  <alias>  (43) 
None

>  <orig_smiles>  (43) 
nan

>  <smiles>  (43) 
None

>  <inchikey>  (43) 
None

>  <HIPPO Compound ID>  (43) 
289862

>  <fragmenstein_mode>  (43) 
nan

>  <fragmenstein_outcome>  (43) 
nan

>  <distance_score>  (43) 
0.983475

>  <subsites>  (43) 
None

>  <scratch_subdir>  (43) 
nan

>  <inspiration_score>  (43) 
None

>  <name>  (43) 
P497923

>  <ref_mols>  (43) 
A2290a,A3436a

>  <ref_pdb>  (43) 
A2290a

>  <exports>  (43) 
['/opt/xchem-fragalysis-2/maxwin/openbind-hippo/a71ev2a/cycle_01/syndirella/elabs/openbind_a71ev2a_c1_elab_chemspace_filtered.sdf', '/opt/xchem-fragalysis-2/maxwin/openbind-hippo/a71ev2a/cycle_01/syndirella/elabs/ASAP-0031281-001_elabs.sdf']

>  <Energy>  (43) 
nan

>  <tags>  (43) 
openbind_a71ev2a_c1_elabs_filtered

>  <GNINA pK>  (43) 
nan

$$$$
P497924
     RDKit          3D

 28 31  0  0  0  0  0  0  0  0999 V2000
    9.2014    8.8340   23.2799 C   0  0  0  0  0  0  0  0  0  0  0  0
    9.0058   10.0690   24.0010 N   0  0  0  0  0  0  0  0  0  0  0  0
    9.8338   11.0868   23.7302 N   0  0  0  0  0  0  0  0  0  0  0  0
    9.4243   12.0741   24.5510 C   0  0  0  0  0  0  0  0  0  0  0  0
   10.1815   13.3203   24.6326 C   0  0  0  0  0  0  0  0  0  0  0  0
   10.0434   14.1009   25.4827 O   0  0  0  0  0  0  0  0  0  0  0  0
   11.1627   13.2894   23.4711 N   0  0  0  0  0  0  0  0  0  0  0  0
   12.2394   14.1500   23.1535 C   0  0  0  0  0  0  0  0  0  0  0  0
   12.6520   14.0746   21.7155 C   0  0  0  0  0  0  0  0  0  0  0  0
   11.6618   14.5585   20.7669 C   0  0  0  0  0  0  0  0  0  0  0  0
   11.7027   14.4078   19.4090 C   0  0  0  0  0  0  0  0  0  0  0  0
   10.6783   15.0914   18.8945 O   0  0  0  0  0  0  0  0  0  0  0  0
   10.1287   15.7093   19.9639 C   0  0  0  0  0  0  0  0  0  0  0  0
    9.3353   16.8405   19.6234 C   0  0  0  0  0  0  0  0  0  0  0  0
    8.8306   17.6487   20.6217 C   0  0  0  0  0  0  0  0  0  0  0  0
    8.0845   18.7456   20.3051 C   0  0  0  0  0  0  0  0  0  0  0  0
    7.7037   18.9128   19.0113 C   0  0  0  0  0  0  0  0  0  0  0  0
    6.7862   19.8205   18.7243 F   0  0  0  0  0  0  0  0  0  0  0  0
    8.2288   18.1581   17.9933 C   0  0  0  0  0  0  0  0  0  0  0  0
    9.1075   17.1633   18.2949 C   0  0  0  0  0  0  0  0  0  0  0  0
   10.6114   15.3488   21.1302 N   0  0  0  0  0  0  0  0  0  0  0  0
    8.2942   11.7065   25.3000 C   0  0  0  0  0  0  0  0  0  0  0  0
    7.4753   12.3495   26.2448 C   0  0  0  0  0  0  0  0  0  0  0  0
    6.4539   11.6167   26.8419 C   0  0  0  0  0  0  0  0  0  0  0  0
    5.3372   12.4437   28.1240 Br  0  0  0  0  0  0  0  0  0  0  0  0
    6.2541   10.2790   26.5225 C   0  0  0  0  0  0  0  0  0  0  0  0
    7.0624    9.6419   25.5771 C   0  0  0  0  0  0  0  0  0  0  0  0
    8.0741   10.3755   24.9642 C   0  0  0  0  0  0  0  0  0  0  0  0
  1  2  1  0
  2  3  1  0
  3  4  2  0
  4  5  1  0
  5  6  2  0
  5  7  1  0
  7  8  1  0
  8  9  1  0
  9 10  1  0
 10 11  2  0
 11 12  1  0
 12 13  1  0
 13 14  1  0
 14 15  2  0
 15 16  1  0
 16 17  2  0
 17 18  1  0
 17 19  1  0
 19 20  2  0
 13 21  2  0
  4 22  1  0
 22 23  2  0
 23 24  1  0
 24 25  1  0
 24 26  2  0
 26 27  1  0
 27 28  2  0
 28  2  1  0
 21 10  1  0
 28 22  1  0
 20 14  1  0
M  END
>  <energy_score>  (44) 
-31.166245

>  <fragmenstein_runtime>  (44) 
nan

>  <HIPPO Pose ID>  (44) 
497924

>  <fragmenstein_error>  (44) 
nan

>  <alias>  (44) 
None

>  <orig_smiles>  (44) 
nan

>  <smiles>  (44) 
None

>  <inchikey>  (44) 
None

>  <HIPPO Compound ID>  (44) 
289863

>  <fragmenstein_mode>  (44) 
nan

>  <fragmenstein_outcome>  (44) 
nan

>  <distance_score>  (44) 
0.989516

>  <subsites>  (44) 
None

>  <scratch_subdir>  (44) 
nan

>  <inspiration_score>  (44) 
None

>  <name>  (44) 
P497924

>  <ref_mols>  (44) 
A2290a,A3436a

>  <ref_pdb>  (44) 
A2290a

>  <exports>  (44) 
['/opt/xchem-fragalysis-2/maxwin/openbind-hippo/a71ev2a/cycle_01/syndirella/elabs/openbind_a71ev2a_c1_elab_chemspace_filtered.sdf', '/opt/xchem-fragalysis-2/maxwin/openbind-hippo/a71ev2a/cycle_01/syndirella/elabs/ASAP-0031281-001_elabs.sdf']

>  <Energy>  (44) 
nan

>  <tags>  (44) 
openbind_a71ev2a_c1_elabs_filtered

>  <GNINA pK>  (44) 
nan

$$$$
P497925
     RDKit          3D

 28 31  0  0  0  0  0  0  0  0999 V2000
    8.4717   18.2638   18.9151 C   0  0  0  0  0  0  0  0  0  0  0  0
    9.2706   17.1389   19.4279 C   0  0  0  0  0  0  0  0  0  0  0  0
    9.3408   16.6694   20.6501 N   0  0  0  0  0  0  0  0  0  0  0  0
   10.1611   15.5756   20.5420 C   0  0  0  0  0  0  0  0  0  0  0  0
   10.3551   14.6907   21.6879 C   0  0  0  0  0  0  0  0  0  0  0  0
    8.9415   14.3266   22.1112 C   0  0  0  0  0  0  0  0  0  0  0  0
    8.8816   13.5238   23.2679 N   0  0  0  0  0  0  0  0  0  0  0  0
    8.5956   13.8977   24.7249 C   0  0  0  0  0  0  0  0  0  0  0  0
    8.4390   14.9383   25.2200 O   0  0  0  0  0  0  0  0  0  0  0  0
    8.4527   12.6237   25.3966 C   0  0  0  0  0  0  0  0  0  0  0  0
    9.0742   11.5498   24.8929 N   0  0  0  0  0  0  0  0  0  0  0  0
    8.2832   10.5421   25.2493 N   0  0  0  0  0  0  0  0  0  0  0  0
    8.3609    9.3085   24.5159 C   0  0  0  0  0  0  0  0  0  0  0  0
    9.1229    9.4738   23.2159 C   0  0  2  0  0  0  0  0  0  0  0  0
    9.0737    8.2068   22.4272 C   0  0  0  0  0  0  0  0  0  0  0  0
    9.9704    7.4608   23.1771 N   0  0  0  0  0  0  0  0  0  0  0  0
   10.9396    8.3120   23.5545 C   0  0  0  0  0  0  0  0  0  0  0  0
   12.0214    7.9564   23.9242 O   0  0  0  0  0  0  0  0  0  0  0  0
   10.5122    9.5912   23.4808 O   0  0  0  0  0  0  0  0  0  0  0  0
    7.3298   10.8813   26.1609 C   0  0  0  0  0  0  0  0  0  0  0  0
    6.3406   10.1408   26.8007 C   0  0  0  0  0  0  0  0  0  0  0  0
    5.4659   10.8419   27.6264 C   0  0  0  0  0  0  0  0  0  0  0  0
    5.5573   12.2254   27.7714 C   0  0  0  0  0  0  0  0  0  0  0  0
    6.5330   12.9568   27.0974 C   0  0  0  0  0  0  0  0  0  0  0  0
    7.4484   12.2599   26.3060 C   0  0  0  0  0  0  0  0  0  0  0  0
   10.5960   15.4417   19.2558 C   0  0  0  0  0  0  0  0  0  0  0  0
   11.5824   14.5660   18.6173 C   0  0  0  0  0  0  0  0  0  0  0  0
   10.0096   16.4380   18.5247 O   0  0  0  0  0  0  0  0  0  0  0  0
  1  2  1  0
  2  3  2  0
  3  4  1  0
  4  5  1  0
  5  6  1  0
  6  7  1  0
  7  8  1  0
  8  9  2  0
  8 10  1  0
 10 11  2  0
 11 12  1  0
 12 13  1  0
 14 13  1  1
 14 15  1  0
 15 16  1  0
 16 17  1  0
 17 18  2  0
 17 19  1  0
 12 20  1  0
 20 21  2  0
 21 22  1  0
 22 23  2  0
 23 24  1  0
 24 25  2  0
  4 26  2  0
 26 27  1  0
 26 28  1  0
 28  2  1  0
 25 10  1  0
 19 14  1  0
 25 20  1  0
M  END
>  <energy_score>  (45) 
-23.696832

>  <fragmenstein_runtime>  (45) 
nan

>  <HIPPO Pose ID>  (45) 
497925

>  <fragmenstein_error>  (45) 
nan

>  <alias>  (45) 
None

>  <orig_smiles>  (45) 
nan

>  <smiles>  (45) 
None

>  <inchikey>  (45) 
None

>  <HIPPO Compound ID>  (45) 
289865

>  <fragmenstein_mode>  (45) 
nan

>  <fragmenstein_outcome>  (45) 
nan

>  <distance_score>  (45) 
1.925326

>  <subsites>  (45) 
None

>  <scratch_subdir>  (45) 
nan

>  <inspiration_score>  (45) 
None

>  <name>  (45) 
P497925

>  <ref_mols>  (45) 
A2290a,A3436a

>  <ref_pdb>  (45) 
A2290a

>  <exports>  (45) 
['/opt/xchem-fragalysis-2/maxwin/openbind-hippo/a71ev2a/cycle_01/syndirella/elabs/openbind_a71ev2a_c1_elab_chemspace_filtered.sdf', '/opt/xchem-fragalysis-2/maxwin/openbind-hippo/a71ev2a/cycle_01/syndirella/elabs/ASAP-0031281-001_elabs.sdf']

>  <Energy>  (45) 
nan

>  <tags>  (45) 
openbind_a71ev2a_c1_elabs_filtered

>  <GNINA pK>  (45) 
nan

$$$$
P497926
     RDKit          3D

 28 31  0  0  0  0  0  0  0  0999 V2000
    7.6835   19.2117   19.5787 C   0  0  0  0  0  0  0  0  0  0  0  0
    8.3418   17.9318   19.7639 C   0  0  0  0  0  0  0  0  0  0  0  0
    8.3257   17.2620   20.9686 C   0  0  0  0  0  0  0  0  0  0  0  0
    8.8426   16.0050   21.0206 C   0  0  0  0  0  0  0  0  0  0  0  0
    9.6426   15.6075   19.9683 C   0  0  0  0  0  0  0  0  0  0  0  0
   10.5966   14.6285   20.2811 C   0  0  0  0  0  0  0  0  0  0  0  0
   10.8338   14.2160   21.4977 N   0  0  0  0  0  0  0  0  0  0  0  0
   12.1547   13.9831   21.4479 C   0  0  0  0  0  0  0  0  0  0  0  0
   12.8749   13.7025   22.6729 C   0  0  0  0  0  0  0  0  0  0  0  0
   12.1217   13.9940   23.9391 C   0  0  0  0  0  0  0  0  0  0  0  0
   11.0235   13.1511   24.1626 N   0  0  0  0  0  0  0  0  0  0  0  0
    9.7724   13.3614   24.9904 C   0  0  0  0  0  0  0  0  0  0  0  0
    9.4707   14.2365   25.6905 O   0  0  0  0  0  0  0  0  0  0  0  0
    8.9982   12.1399   24.8177 C   0  0  0  0  0  0  0  0  0  0  0  0
    9.4528   11.1536   24.0173 N   0  0  0  0  0  0  0  0  0  0  0  0
    8.6499   10.1219   24.2912 N   0  0  0  0  0  0  0  0  0  0  0  0
    8.9881    8.8321   23.7421 C   0  0  0  0  0  0  0  0  0  0  0  0
    7.6696   10.4282   25.2039 C   0  0  0  0  0  0  0  0  0  0  0  0
    6.6513    9.6849   25.7904 C   0  0  0  0  0  0  0  0  0  0  0  0
    5.8267   10.3117   26.7269 C   0  0  0  0  0  0  0  0  0  0  0  0
    6.0053   11.6511   27.0506 C   0  0  0  0  0  0  0  0  0  0  0  0
    4.8592   12.4618   28.3175 Br  0  0  0  0  0  0  0  0  0  0  0  0
    7.0187   12.3993   26.4635 C   0  0  0  0  0  0  0  0  0  0  0  0
    7.8529   11.7657   25.5290 C   0  0  0  0  0  0  0  0  0  0  0  0
   12.6089   14.0906   20.1619 C   0  0  0  0  0  0  0  0  0  0  0  0
   11.5901   14.4771   19.3785 O   0  0  0  0  0  0  0  0  0  0  0  0
    9.7561   16.3319   18.8002 C   0  0  0  0  0  0  0  0  0  0  0  0
    9.0011   17.4406   18.6535 C   0  0  0  0  0  0  0  0  0  0  0  0
  1  2  1  0
  2  3  2  0
  3  4  1  0
  4  5  2  0
  5  6  1  0
  6  7  2  0
  7  8  1  0
  8  9  1  0
  9 10  1  0
 10 11  1  0
 11 12  1  0
 12 13  2  0
 12 14  1  0
 14 15  2  0
 15 16  1  0
 16 17  1  0
 16 18  1  0
 18 19  2  0
 19 20  1  0
 20 21  2  0
 21 22  1  0
 21 23  1  0
 23 24  2  0
  8 25  2  0
 25 26  1  0
  5 27  1  0
 27 28  2  0
 28  2  1  0
 26  6  1  0
 24 14  1  0
 24 18  1  0
M  END
>  <energy_score>  (46) 
-7.132841

>  <fragmenstein_runtime>  (46) 
nan

>  <HIPPO Pose ID>  (46) 
497926

>  <fragmenstein_error>  (46) 
nan

>  <alias>  (46) 
None

>  <orig_smiles>  (46) 
nan

>  <smiles>  (46) 
None

>  <inchikey>  (46) 
None

>  <HIPPO Compound ID>  (46) 
289866

>  <fragmenstein_mode>  (46) 
nan

>  <fragmenstein_outcome>  (46) 
nan

>  <distance_score>  (46) 
1.692655

>  <subsites>  (46) 
None

>  <scratch_subdir>  (46) 
nan

>  <inspiration_score>  (46) 
None

>  <name>  (46) 
P497926

>  <ref_mols>  (46) 
A2290a,A3436a

>  <ref_pdb>  (46) 
A2290a

>  <exports>  (46) 
['/opt/xchem-fragalysis-2/maxwin/openbind-hippo/a71ev2a/cycle_01/syndirella/elabs/openbind_a71ev2a_c1_elab_chemspace_filtered.sdf', '/opt/xchem-fragalysis-2/maxwin/openbind-hippo/a71ev2a/cycle_01/syndirella/elabs/ASAP-0031281-001_elabs.sdf']

>  <Energy>  (46) 
nan

>  <tags>  (46) 
openbind_a71ev2a_c1_elabs_filtered

>  <GNINA pK>  (46) 
nan

$$$$
P497927
     RDKit          3D

 28 30  0  0  0  0  0  0  0  0999 V2000
    6.8020   16.1083   27.8311 C   0  0  0  0  0  0  0  0  0  0  0  0
    7.2070   14.9073   27.1719 O   0  0  0  0  0  0  0  0  0  0  0  0
    8.5141   14.8943   26.7773 C   0  0  0  0  0  0  0  0  0  0  0  0
    9.3123   15.7977   27.0214 O   0  0  0  0  0  0  0  0  0  0  0  0
    8.8795   13.6823   26.0294 C   0  0  0  0  0  0  0  0  0  0  0  0
   10.0865   13.5927   25.4400 N   0  0  0  0  0  0  0  0  0  0  0  0
   10.0855   12.3967   24.8233 N   0  0  0  0  0  0  0  0  0  0  0  0
   11.1798   12.0923   23.9153 C   0  0  0  0  0  0  0  0  0  0  0  0
   11.3134   13.2069   22.9135 C   0  0  0  0  0  0  0  0  0  0  0  0
   12.2540   13.8869   22.8058 O   0  0  0  0  0  0  0  0  0  0  0  0
    9.9425   13.2726   22.2016 N   0  0  0  0  0  0  0  0  0  0  0  0
    9.4119   14.2456   21.2797 C   0  0  2  0  0  0  0  0  0  0  0  0
   10.3390   15.4020   21.0275 C   0  0  0  0  0  0  0  0  0  0  0  0
    9.6730   16.4411   20.2287 C   0  0  0  0  0  0  0  0  0  0  0  0
    9.7417   16.7114   18.8855 C   0  0  0  0  0  0  0  0  0  0  0  0
    8.9306   17.7694   18.6180 O   0  0  0  0  0  0  0  0  0  0  0  0
    8.4311   18.1082   19.8388 C   0  0  0  0  0  0  0  0  0  0  0  0
    8.8503   17.3533   20.8274 N   0  0  0  0  0  0  0  0  0  0  0  0
    7.9746   14.3367   21.8146 C   0  0  0  0  0  0  0  0  0  0  0  0
    7.2410   13.3433   21.7624 O   0  0  0  0  0  0  0  0  0  0  0  0
    7.6053   15.4744   22.4091 O   0  0  0  0  0  0  0  0  0  0  0  0
    6.3239   15.4386   23.0382 C   0  0  0  0  0  0  0  0  0  0  0  0
    8.9837   11.6296   25.1044 C   0  0  0  0  0  0  0  0  0  0  0  0
    8.6410   10.3157   24.7764 C   0  0  0  0  0  0  0  0  0  0  0  0
    7.4685    9.8095   25.3383 C   0  0  0  0  0  0  0  0  0  0  0  0
    6.6336   10.5951   26.1251 C   0  0  0  0  0  0  0  0  0  0  0  0
    6.9570   11.9270   26.3869 C   0  0  0  0  0  0  0  0  0  0  0  0
    8.1665   12.4500   25.8894 C   0  0  0  0  0  0  0  0  0  0  0  0
  1  2  1  0
  2  3  1  0
  3  4  2  0
  3  5  1  0
  5  6  2  0
  6  7  1  0
  7  8  1  0
  8  9  1  0
  9 10  2  0
  9 11  1  0
 11 12  1  0
 12 13  1  1
 13 14  1  0
 14 15  2  0
 15 16  1  0
 16 17  1  0
 17 18  2  0
 12 19  1  0
 19 20  2  0
 19 21  1  0
 21 22  1  0
  7 23  1  0
 23 24  2  0
 24 25  1  0
 25 26  2  0
 26 27  1  0
 27 28  2  0
 28  5  1  0
 18 14  1  0
 28 23  1  0
M  END
>  <energy_score>  (47) 
-1.56021

>  <fragmenstein_runtime>  (47) 
nan

>  <HIPPO Pose ID>  (47) 
497927

>  <fragmenstein_error>  (47) 
nan

>  <alias>  (47) 
None

>  <orig_smiles>  (47) 
nan

>  <smiles>  (47) 
None

>  <inchikey>  (47) 
None

>  <HIPPO Compound ID>  (47) 
289869

>  <fragmenstein_mode>  (47) 
nan

>  <fragmenstein_outcome>  (47) 
nan

>  <distance_score>  (47) 
1.836773

>  <subsites>  (47) 
None

>  <scratch_subdir>  (47) 
nan

>  <inspiration_score>  (47) 
None

>  <name>  (47) 
P497927

>  <ref_mols>  (47) 
A2290a,A3436a

>  <ref_pdb>  (47) 
A2290a

>  <exports>  (47) 
['/opt/xchem-fragalysis-2/maxwin/openbind-hippo/a71ev2a/cycle_01/bulkdock/openbind_a71ev2a_c1_elab_chemspace.sdf', '/opt/xchem-fragalysis-2/maxwin/openbind-hippo/a71ev2a/cycle_01/syndirella/elabs/openbind_a71ev2a_c1_elab_chemspace_filtered.sdf', '/opt/xchem-fragalysis-2/maxwin/openbind-hippo/a71ev2a/cycle_01/syndirella/elabs/ASAP-0031281-001_elabs.sdf']

>  <Energy>  (47) 
nan

>  <tags>  (47) 
openbind_a71ev2a_c1_elabs_filtered

>  <GNINA pK>  (47) 
nan

$$$$
P497928
     RDKit          3D

 28 30  0  0  0  0  0  0  0  0999 V2000
    3.6803   12.0500   29.1894 C   0  0  0  0  0  0  0  0  0  0  0  0
    4.5157   11.4826   28.1793 O   0  0  0  0  0  0  0  0  0  0  0  0
    5.6486   12.1932   27.9477 C   0  0  0  0  0  0  0  0  0  0  0  0
    5.9889   13.2159   28.5187 O   0  0  0  0  0  0  0  0  0  0  0  0
    6.4429   11.5530   26.8725 C   0  0  0  0  0  0  0  0  0  0  0  0
    6.3734   10.1799   26.6296 C   0  0  0  0  0  0  0  0  0  0  0  0
    7.1579    9.5848   25.6372 C   0  0  0  0  0  0  0  0  0  0  0  0
    7.9992   10.3907   24.8809 C   0  0  0  0  0  0  0  0  0  0  0  0
    8.0541   11.7644   25.0853 C   0  0  0  0  0  0  0  0  0  0  0  0
    7.2977   12.3595   26.1106 C   0  0  0  0  0  0  0  0  0  0  0  0
    8.9439   12.2246   24.1015 C   0  0  0  0  0  0  0  0  0  0  0  0
    9.4730   13.5670   23.9126 C   0  0  0  0  0  0  0  0  0  0  0  0
    9.4216   14.3870   24.7346 O   0  0  0  0  0  0  0  0  0  0  0  0
   10.1408   13.5808   22.5410 N   0  0  0  0  0  0  0  0  0  0  0  0
   10.9765   14.5757   21.9149 C   0  0  2  0  0  0  0  0  0  0  0  0
   10.7868   14.7162   20.4230 C   0  0  0  0  0  0  0  0  0  0  0  0
    9.9256   15.8680   20.0682 C   0  0  0  0  0  0  0  0  0  0  0  0
    9.8391   16.5573   18.8824 C   0  0  0  0  0  0  0  0  0  0  0  0
    9.0215   17.6265   19.0607 O   0  0  0  0  0  0  0  0  0  0  0  0
    8.6682   17.5426   20.3706 C   0  0  0  0  0  0  0  0  0  0  0  0
    9.1338   16.4863   20.9984 N   0  0  0  0  0  0  0  0  0  0  0  0
   12.2398   13.8354   22.2447 C   0  0  0  0  0  0  0  0  0  0  0  0
   12.8186   13.0610   21.5080 O   0  0  0  0  0  0  0  0  0  0  0  0
   12.6007   14.0781   23.5307 O   0  0  0  0  0  0  0  0  0  0  0  0
   12.8095   12.8953   24.2855 C   0  0  0  0  0  0  0  0  0  0  0  0
    9.4211   11.2232   23.3382 N   0  0  0  0  0  0  0  0  0  0  0  0
    8.8734   10.1198   23.8556 N   0  0  0  0  0  0  0  0  0  0  0  0
    9.2099    8.8497   23.2557 C   0  0  0  0  0  0  0  0  0  0  0  0
  1  2  1  0
  2  3  1  0
  3  4  2  0
  3  5  1  0
  5  6  2  0
  6  7  1  0
  7  8  2  0
  8  9  1  0
  9 10  2  0
  9 11  1  0
 11 12  1  0
 12 13  2  0
 12 14  1  0
 14 15  1  0
 15 16  1  6
 16 17  1  0
 17 18  2  0
 18 19  1  0
 19 20  1  0
 20 21  2  0
 15 22  1  0
 22 23  2  0
 22 24  1  0
 24 25  1  0
 11 26  2  0
 26 27  1  0
 27 28  1  0
 10  5  1  0
 21 17  1  0
 27  8  1  0
M  END
>  <energy_score>  (48) 
-30.979049

>  <fragmenstein_runtime>  (48) 
nan

>  <HIPPO Pose ID>  (48) 
497928

>  <fragmenstein_error>  (48) 
nan

>  <alias>  (48) 
None

>  <orig_smiles>  (48) 
nan

>  <smiles>  (48) 
None

>  <inchikey>  (48) 
None

>  <HIPPO Compound ID>  (48) 
289870

>  <fragmenstein_mode>  (48) 
nan

>  <fragmenstein_outcome>  (48) 
nan

>  <distance_score>  (48) 
1.036451

>  <subsites>  (48) 
None

>  <scratch_subdir>  (48) 
nan

>  <inspiration_score>  (48) 
None

>  <name>  (48) 
P497928

>  <ref_mols>  (48) 
A2290a,A3436a

>  <ref_pdb>  (48) 
A2290a

>  <exports>  (48) 
['/opt/xchem-fragalysis-2/maxwin/openbind-hippo/a71ev2a/cycle_01/syndirella/elabs/openbind_a71ev2a_c1_elab_chemspace_filtered.sdf', '/opt/xchem-fragalysis-2/maxwin/openbind-hippo/a71ev2a/cycle_01/syndirella/elabs/ASAP-0031281-001_elabs.sdf']

>  <Energy>  (48) 
nan

>  <tags>  (48) 
openbind_a71ev2a_c1_elabs_filtered

>  <GNINA pK>  (48) 
nan

$$$$
P497929
     RDKit          3D

 29 32  0  0  0  0  0  0  0  0999 V2000
    8.9884    8.9675   23.8221 C   0  0  0  0  0  0  0  0  0  0  0  0
    8.6160   10.2464   24.3817 N   0  0  0  0  0  0  0  0  0  0  0  0
    9.3443   11.3178   24.0579 N   0  0  0  0  0  0  0  0  0  0  0  0
    8.9054   12.2890   24.8947 C   0  0  0  0  0  0  0  0  0  0  0  0
    9.6348   13.5615   24.9690 C   0  0  0  0  0  0  0  0  0  0  0  0
    9.4734   14.3999   25.7551 O   0  0  0  0  0  0  0  0  0  0  0  0
   10.6627   13.4338   23.8661 N   0  0  0  0  0  0  0  0  0  0  0  0
   11.6565   14.3407   23.4227 C   0  0  0  0  0  0  0  0  0  0  0  0
   12.0896   14.0990   21.9929 C   0  0  0  0  0  0  0  0  0  0  0  0
   12.4567   12.6564   21.9223 C   0  0  0  0  0  0  0  0  0  0  0  0
   13.2733   14.9902   21.7073 C   0  0  0  0  0  0  0  0  0  0  0  0
   11.1251   14.4693   20.9514 C   0  0  0  0  0  0  0  0  0  0  0  0
   11.3384   14.3631   19.5963 C   0  0  0  0  0  0  0  0  0  0  0  0
   10.4894   15.1837   18.9872 O   0  0  0  0  0  0  0  0  0  0  0  0
    9.8747   15.8071   20.0121 C   0  0  0  0  0  0  0  0  0  0  0  0
    9.2087   16.9924   19.6305 C   0  0  0  0  0  0  0  0  0  0  0  0
    9.0252   17.2693   18.2860 C   0  0  0  0  0  0  0  0  0  0  0  0
    8.1423   18.2419   17.9473 C   0  0  0  0  0  0  0  0  0  0  0  0
    7.5844   19.0185   18.9376 C   0  0  0  0  0  0  0  0  0  0  0  0
    7.9675   18.8978   20.2405 C   0  0  0  0  0  0  0  0  0  0  0  0
    8.7087   17.8230   20.6094 C   0  0  0  0  0  0  0  0  0  0  0  0
   10.1186   15.3365   21.2097 N   0  0  0  0  0  0  0  0  0  0  0  0
    7.8112   11.8617   25.6542 C   0  0  0  0  0  0  0  0  0  0  0  0
    6.9852   12.4597   26.6161 C   0  0  0  0  0  0  0  0  0  0  0  0
    5.9956   11.6786   27.2036 C   0  0  0  0  0  0  0  0  0  0  0  0
    4.8548   12.4443   28.5036 Br  0  0  0  0  0  0  0  0  0  0  0  0
    5.8316   10.3420   26.8550 C   0  0  0  0  0  0  0  0  0  0  0  0
    6.6501    9.7459   25.8946 C   0  0  0  0  0  0  0  0  0  0  0  0
    7.6441   10.5230   25.3097 C   0  0  0  0  0  0  0  0  0  0  0  0
  1  2  1  0
  2  3  1  0
  3  4  2  0
  4  5  1  0
  5  6  2  0
  5  7  1  0
  7  8  1  0
  8  9  1  0
  9 10  1  0
  9 11  1  0
  9 12  1  0
 12 13  2  0
 13 14  1  0
 14 15  1  0
 15 16  1  0
 16 17  2  0
 17 18  1  0
 18 19  2  0
 19 20  1  0
 20 21  2  0
 15 22  2  0
  4 23  1  0
 23 24  2  0
 24 25  1  0
 25 26  1  0
 25 27  2  0
 27 28  1  0
 28 29  2  0
 29  2  1  0
 22 12  1  0
 29 23  1  0
 21 16  1  0
M  END
>  <energy_score>  (49) 
-2.32094

>  <fragmenstein_runtime>  (49) 
nan

>  <HIPPO Pose ID>  (49) 
497929

>  <fragmenstein_error>  (49) 
nan

>  <alias>  (49) 
None

>  <orig_smiles>  (49) 
nan

>  <smiles>  (49) 
None

>  <inchikey>  (49) 
None

>  <HIPPO Compound ID>  (49) 
289871

>  <fragmenstein_mode>  (49) 
nan

>  <fragmenstein_outcome>  (49) 
nan

>  <distance_score>  (49) 
1.275325

>  <subsites>  (49) 
None

>  <scratch_subdir>  (49) 
nan

>  <inspiration_score>  (49) 
None

>  <name>  (49) 
P497929

>  <ref_mols>  (49) 
A2290a,A3436a

>  <ref_pdb>  (49) 
A2290a

>  <exports>  (49) 
['/opt/xchem-fragalysis-2/maxwin/openbind-hippo/a71ev2a/cycle_01/syndirella/elabs/openbind_a71ev2a_c1_elab_chemspace_filtered.sdf', '/opt/xchem-fragalysis-2/maxwin/openbind-hippo/a71ev2a/cycle_01/syndirella/elabs/ASAP-0031281-001_elabs.sdf']

>  <Energy>  (49) 
nan

>  <tags>  (49) 
openbind_a71ev2a_c1_elabs_filtered

>  <GNINA pK>  (49) 
nan

$$$$
P497930
     RDKit          3D

 29 32  0  0  0  0  0  0  0  0999 V2000
    9.1878    8.7666   23.5842 C   0  0  0  0  0  0  0  0  0  0  0  0
    8.9275   10.0855   24.1051 N   0  0  0  0  0  0  0  0  0  0  0  0
    9.7516   11.0825   23.7633 N   0  0  0  0  0  0  0  0  0  0  0  0
    9.3611   12.1108   24.5404 C   0  0  0  0  0  0  0  0  0  0  0  0
   10.1633   13.3310   24.6139 C   0  0  0  0  0  0  0  0  0  0  0  0
   10.0039   14.1397   25.4337 O   0  0  0  0  0  0  0  0  0  0  0  0
   11.2196   13.2254   23.5228 N   0  0  0  0  0  0  0  0  0  0  0  0
   12.2444   14.1267   23.1424 C   0  0  0  0  0  0  0  0  0  0  0  0
   12.6183   14.0490   21.6937 C   0  0  0  0  0  0  0  0  0  0  0  0
   11.6205   14.5494   20.7599 C   0  0  0  0  0  0  0  0  0  0  0  0
   11.6627   14.4163   19.3995 C   0  0  0  0  0  0  0  0  0  0  0  0
   10.6484   15.1183   18.8914 O   0  0  0  0  0  0  0  0  0  0  0  0
   10.1030   15.7321   19.9652 C   0  0  0  0  0  0  0  0  0  0  0  0
    9.3113   16.8669   19.6256 C   0  0  0  0  0  0  0  0  0  0  0  0
    9.0720   17.1898   18.2987 C   0  0  0  0  0  0  0  0  0  0  0  0
    8.1931   18.1905   17.9990 C   0  0  0  0  0  0  0  0  0  0  0  0
    7.6604   18.9546   19.0116 C   0  0  0  0  0  0  0  0  0  0  0  0
    8.0636   18.7726   20.3027 C   0  0  0  0  0  0  0  0  0  0  0  0
    8.8125   17.6768   20.6210 C   0  0  0  0  0  0  0  0  0  0  0  0
   10.5776   15.3488   21.1302 N   0  0  0  0  0  0  0  0  0  0  0  0
    8.2053   11.8017   25.2841 C   0  0  0  0  0  0  0  0  0  0  0  0
    7.3814   12.5045   26.1804 C   0  0  0  0  0  0  0  0  0  0  0  0
    6.3279   11.8069   26.7790 C   0  0  0  0  0  0  0  0  0  0  0  0
    5.4340   12.5095   27.6974 N   0  0  0  0  0  0  0  0  0  0  0  0
    4.2761   12.0787   27.8104 O   0  0  0  0  0  0  0  0  0  0  0  0
    5.8997   13.4682   28.3284 O   0  0  0  0  0  0  0  0  0  0  0  0
    6.1162   10.4479   26.5351 C   0  0  0  0  0  0  0  0  0  0  0  0
    6.9434    9.7545   25.6507 C   0  0  0  0  0  0  0  0  0  0  0  0
    7.9716   10.4565   25.0213 C   0  0  0  0  0  0  0  0  0  0  0  0
  1  2  1  0
  2  3  1  0
  3  4  2  0
  4  5  1  0
  5  6  2  0
  5  7  1  0
  7  8  1  0
  8  9  1  0
  9 10  1  0
 10 11  2  0
 11 12  1  0
 12 13  1  0
 13 14  1  0
 14 15  2  0
 15 16  1  0
 16 17  2  0
 17 18  1  0
 18 19  2  0
 13 20  2  0
  4 21  1  0
 21 22  2  0
 22 23  1  0
 23 24  1  0
 24 25  2  0
 24 26  1  0
 23 27  2  0
 27 28  1  0
 28 29  2  0
 29  2  1  0
 20 10  1  0
 29 21  1  0
 19 14  1  0
M  CHG  2  24   1  26  -1
M  END
>  <energy_score>  (50) 
-29.539312

>  <fragmenstein_runtime>  (50) 
nan

>  <HIPPO Pose ID>  (50) 
497930

>  <fragmenstein_error>  (50) 
nan

>  <alias>  (50) 
None

>  <orig_smiles>  (50) 
nan

>  <smiles>  (50) 
None

>  <inchikey>  (50) 
None

>  <HIPPO Compound ID>  (50) 
289873

>  <fragmenstein_mode>  (50) 
nan

>  <fragmenstein_outcome>  (50) 
nan

>  <distance_score>  (50) 
0.994081

>  <subsites>  (50) 
None

>  <scratch_subdir>  (50) 
nan

>  <inspiration_score>  (50) 
None

>  <name>  (50) 
P497930

>  <ref_mols>  (50) 
A2290a,A3436a

>  <ref_pdb>  (50) 
A2290a

>  <exports>  (50) 
['/opt/xchem-fragalysis-2/maxwin/openbind-hippo/a71ev2a/cycle_01/syndirella/elabs/openbind_a71ev2a_c1_elab_chemspace_filtered.sdf', '/opt/xchem-fragalysis-2/maxwin/openbind-hippo/a71ev2a/cycle_01/syndirella/elabs/ASAP-0031281-001_elabs.sdf']

>  <Energy>  (50) 
nan

>  <tags>  (50) 
openbind_a71ev2a_c1_elabs_filtered

>  <GNINA pK>  (50) 
nan

$$$$
P497931
     RDKit          3D

 29 32  0  0  0  0  0  0  0  0999 V2000
    8.9947    8.9850   23.8177 C   0  0  0  0  0  0  0  0  0  0  0  0
    8.6203   10.2631   24.3769 N   0  0  0  0  0  0  0  0  0  0  0  0
    9.3397   11.3380   24.0432 N   0  0  0  0  0  0  0  0  0  0  0  0
    8.9320   12.2956   24.9100 C   0  0  0  0  0  0  0  0  0  0  0  0
    9.6821   13.5539   24.9998 C   0  0  0  0  0  0  0  0  0  0  0  0
    9.6415   14.3061   25.8827 O   0  0  0  0  0  0  0  0  0  0  0  0
   10.5433   13.5450   23.7562 N   0  0  0  0  0  0  0  0  0  0  0  0
   11.6043   14.3966   23.3639 C   0  0  0  0  0  0  0  0  0  0  0  0
   12.0884   14.1054   21.9627 C   0  0  0  0  0  0  0  0  0  0  0  0
   12.4434   12.6573   21.9546 C   0  0  0  0  0  0  0  0  0  0  0  0
   13.2831   14.9846   21.6952 C   0  0  0  0  0  0  0  0  0  0  0  0
   11.1483   14.4603   20.8937 C   0  0  0  0  0  0  0  0  0  0  0  0
   11.3865   14.3673   19.5427 C   0  0  0  0  0  0  0  0  0  0  0  0
   10.5390   15.1887   18.9276 O   0  0  0  0  0  0  0  0  0  0  0  0
    9.8905   15.7849   19.9474 C   0  0  0  0  0  0  0  0  0  0  0  0
    9.2190   16.9728   19.5854 C   0  0  0  0  0  0  0  0  0  0  0  0
    8.7338   17.7905   20.5847 C   0  0  0  0  0  0  0  0  0  0  0  0
    7.9911   18.8746   20.2468 C   0  0  0  0  0  0  0  0  0  0  0  0
    7.5913   19.0182   18.9511 C   0  0  0  0  0  0  0  0  0  0  0  0
    8.1305   18.2504   17.9423 C   0  0  0  0  0  0  0  0  0  0  0  0
    9.0124   17.2659   18.2505 C   0  0  0  0  0  0  0  0  0  0  0  0
   10.1154   15.2988   21.1410 N   0  0  0  0  0  0  0  0  0  0  0  0
    7.8459   11.8664   25.6808 C   0  0  0  0  0  0  0  0  0  0  0  0
    7.0409   12.4560   26.6637 C   0  0  0  0  0  0  0  0  0  0  0  0
    6.0524   11.6751   27.2444 C   0  0  0  0  0  0  0  0  0  0  0  0
    5.2687   12.2074   28.1919 F   0  0  0  0  0  0  0  0  0  0  0  0
    5.8620   10.3504   26.8779 C   0  0  0  0  0  0  0  0  0  0  0  0
    6.6607    9.7577   25.8997 C   0  0  0  0  0  0  0  0  0  0  0  0
    7.6577   10.5347   25.3162 C   0  0  0  0  0  0  0  0  0  0  0  0
  1  2  1  0
  2  3  1  0
  3  4  2  0
  4  5  1  0
  5  6  2  0
  5  7  1  0
  7  8  1  0
  8  9  1  0
  9 10  1  0
  9 11  1  0
  9 12  1  0
 12 13  2  0
 13 14  1  0
 14 15  1  0
 15 16  1  0
 16 17  2  0
 17 18  1  0
 18 19  2  0
 19 20  1  0
 20 21  2  0
 15 22  2  0
  4 23  1  0
 23 24  2  0
 24 25  1  0
 25 26  1  0
 25 27  2  0
 27 28  1  0
 28 29  2  0
 29  2  1  0
 22 12  1  0
 29 23  1  0
 21 16  1  0
M  END
>  <energy_score>  (51) 
-25.953507

>  <fragmenstein_runtime>  (51) 
nan

>  <HIPPO Pose ID>  (51) 
497931

>  <fragmenstein_error>  (51) 
nan

>  <alias>  (51) 
None

>  <orig_smiles>  (51) 
nan

>  <smiles>  (51) 
None

>  <inchikey>  (51) 
None

>  <HIPPO Compound ID>  (51) 
289874

>  <fragmenstein_mode>  (51) 
nan

>  <fragmenstein_outcome>  (51) 
nan

>  <distance_score>  (51) 
1.274591

>  <subsites>  (51) 
None

>  <scratch_subdir>  (51) 
nan

>  <inspiration_score>  (51) 
None

>  <name>  (51) 
P497931

>  <ref_mols>  (51) 
A2290a,A3436a

>  <ref_pdb>  (51) 
A2290a

>  <exports>  (51) 
['/opt/xchem-fragalysis-2/maxwin/openbind-hippo/a71ev2a/cycle_01/syndirella/elabs/openbind_a71ev2a_c1_elab_chemspace_filtered.sdf', '/opt/xchem-fragalysis-2/maxwin/openbind-hippo/a71ev2a/cycle_01/syndirella/elabs/ASAP-0031281-001_elabs.sdf']

>  <Energy>  (51) 
nan

>  <tags>  (51) 
openbind_a71ev2a_c1_elabs_filtered

>  <GNINA pK>  (51) 
nan

$$$$
P497932
     RDKit          3D

 29 32  0  0  0  0  0  0  0  0999 V2000
   10.2054   14.1051   25.4417 O   0  0  0  0  0  0  0  0  0  0  0  0
   10.3319   13.3413   24.5746 C   0  0  0  0  0  0  0  0  0  0  0  0
   11.2720   13.3524   23.3784 N   0  0  0  0  0  0  0  0  0  0  0  0
   12.3148   14.2429   23.0374 C   0  0  0  0  0  0  0  0  0  0  0  0
   12.6851   14.1554   21.5893 C   0  0  0  0  0  0  0  0  0  0  0  0
   11.6491   14.6017   20.6740 C   0  0  0  0  0  0  0  0  0  0  0  0
   11.6428   14.4366   19.3178 C   0  0  0  0  0  0  0  0  0  0  0  0
   10.6007   15.1168   18.8370 O   0  0  0  0  0  0  0  0  0  0  0  0
   10.0892   15.7436   19.9171 C   0  0  0  0  0  0  0  0  0  0  0  0
    9.2976   16.8796   19.5941 C   0  0  0  0  0  0  0  0  0  0  0  0
    9.0453   17.2089   18.2723 C   0  0  0  0  0  0  0  0  0  0  0  0
    8.1676   18.2141   17.9926 C   0  0  0  0  0  0  0  0  0  0  0  0
    7.6477   18.9704   19.0181 C   0  0  0  0  0  0  0  0  0  0  0  0
    8.0629   18.7781   20.3042 C   0  0  0  0  0  0  0  0  0  0  0  0
    8.8133   17.6799   20.6048 C   0  0  0  0  0  0  0  0  0  0  0  0
   10.6028   15.3824   21.0697 N   0  0  0  0  0  0  0  0  0  0  0  0
    9.6118   12.0752   24.4836 C   0  0  0  0  0  0  0  0  0  0  0  0
   10.0703   11.1213   23.6534 N   0  0  0  0  0  0  0  0  0  0  0  0
    9.2723   10.0540   23.8751 N   0  0  0  0  0  0  0  0  0  0  0  0
    9.4839    8.8345   23.0775 C   0  0  0  0  0  0  0  0  0  0  0  0
    8.3435    8.1373   22.9395 F   0  0  0  0  0  0  0  0  0  0  0  0
   10.4000    7.9980   23.6133 F   0  0  0  0  0  0  0  0  0  0  0  0
    9.9417    9.1249   21.8357 F   0  0  0  0  0  0  0  0  0  0  0  0
    8.3134   10.3225   24.8365 C   0  0  0  0  0  0  0  0  0  0  0  0
    7.3114    9.5548   25.4245 C   0  0  0  0  0  0  0  0  0  0  0  0
    6.4604   10.1565   26.3576 C   0  0  0  0  0  0  0  0  0  0  0  0
    6.6052   11.4944   26.7032 C   0  0  0  0  0  0  0  0  0  0  0  0
    7.6217   12.2574   26.1346 C   0  0  0  0  0  0  0  0  0  0  0  0
    8.4836   11.6556   25.2010 C   0  0  0  0  0  0  0  0  0  0  0  0
  1  2  2  0
  2  3  1  0
  3  4  1  0
  4  5  1  0
  5  6  1  0
  6  7  2  0
  7  8  1  0
  8  9  1  0
  9 10  1  0
 10 11  2  0
 11 12  1  0
 12 13  2  0
 13 14  1  0
 14 15  2  0
  9 16  2  0
  2 17  1  0
 17 18  2  0
 18 19  1  0
 19 20  1  0
 20 21  1  0
 20 22  1  0
 20 23  1  0
 19 24  1  0
 24 25  2  0
 25 26  1  0
 26 27  2  0
 27 28  1  0
 28 29  2  0
 16  6  1  0
 29 17  1  0
 15 10  1  0
 29 24  1  0
M  END
>  <energy_score>  (52) 
-15.129727

>  <fragmenstein_runtime>  (52) 
nan

>  <HIPPO Pose ID>  (52) 
497932

>  <fragmenstein_error>  (52) 
nan

>  <alias>  (52) 
None

>  <orig_smiles>  (52) 
nan

>  <smiles>  (52) 
None

>  <inchikey>  (52) 
None

>  <HIPPO Compound ID>  (52) 
289879

>  <fragmenstein_mode>  (52) 
nan

>  <fragmenstein_outcome>  (52) 
nan

>  <distance_score>  (52) 
0.917858

>  <subsites>  (52) 
None

>  <scratch_subdir>  (52) 
nan

>  <inspiration_score>  (52) 
None

>  <name>  (52) 
P497932

>  <ref_mols>  (52) 
A2290a,A3436a

>  <ref_pdb>  (52) 
A2290a

>  <exports>  (52) 
['/opt/xchem-fragalysis-2/maxwin/openbind-hippo/a71ev2a/cycle_01/syndirella/elabs/openbind_a71ev2a_c1_elab_chemspace_filtered.sdf', '/opt/xchem-fragalysis-2/maxwin/openbind-hippo/a71ev2a/cycle_01/syndirella/elabs/ASAP-0031281-001_elabs.sdf']

>  <Energy>  (52) 
nan

>  <tags>  (52) 
openbind_a71ev2a_c1_elabs_filtered

>  <GNINA pK>  (52) 
nan

$$$$
P497933
     RDKit          3D

 30 33  0  0  0  0  0  0  0  0999 V2000
    9.1951    8.8257   23.2932 C   0  0  0  0  0  0  0  0  0  0  0  0
    9.0000   10.0641   24.0064 N   0  0  0  0  0  0  0  0  0  0  0  0
    9.8227   11.0794   23.7202 N   0  0  0  0  0  0  0  0  0  0  0  0
    9.4234   12.0707   24.5402 C   0  0  0  0  0  0  0  0  0  0  0  0
   10.1861   13.3133   24.6211 C   0  0  0  0  0  0  0  0  0  0  0  0
   10.0053   14.1214   25.4361 O   0  0  0  0  0  0  0  0  0  0  0  0
   11.1940   13.2675   23.4836 N   0  0  0  0  0  0  0  0  0  0  0  0
   12.2515   14.1478   23.1556 C   0  0  0  0  0  0  0  0  0  0  0  0
   12.6577   14.0760   21.7156 C   0  0  0  0  0  0  0  0  0  0  0  0
   11.6622   14.5533   20.7689 C   0  0  0  0  0  0  0  0  0  0  0  0
   11.7073   14.4078   19.4103 C   0  0  0  0  0  0  0  0  0  0  0  0
   10.6803   15.0877   18.8961 O   0  0  0  0  0  0  0  0  0  0  0  0
   10.1273   15.7019   19.9661 C   0  0  0  0  0  0  0  0  0  0  0  0
    9.3362   16.8356   19.6261 C   0  0  0  0  0  0  0  0  0  0  0  0
    9.1092   17.1601   18.2977 C   0  0  0  0  0  0  0  0  0  0  0  0
    8.2314   18.1560   17.9959 C   0  0  0  0  0  0  0  0  0  0  0  0
    7.7064   18.9109   19.0136 C   0  0  0  0  0  0  0  0  0  0  0  0
    6.7882   19.8182   18.7269 F   0  0  0  0  0  0  0  0  0  0  0  0
    8.0872   18.7427   20.3073 C   0  0  0  0  0  0  0  0  0  0  0  0
    8.8324   17.6448   20.6238 C   0  0  0  0  0  0  0  0  0  0  0  0
   10.6032   15.3320   21.1328 N   0  0  0  0  0  0  0  0  0  0  0  0
    8.2814   11.7170   25.2800 C   0  0  0  0  0  0  0  0  0  0  0  0
    7.4523   12.3785   26.2034 C   0  0  0  0  0  0  0  0  0  0  0  0
    6.4061   11.6515   26.7778 C   0  0  0  0  0  0  0  0  0  0  0  0
    5.5184   12.3075   27.7367 N   0  0  0  0  0  0  0  0  0  0  0  0
    5.9809   13.2557   28.3862 O   0  0  0  0  0  0  0  0  0  0  0  0
    4.3738   11.8485   27.8667 O   0  0  0  0  0  0  0  0  0  0  0  0
    6.2063   10.3031   26.4785 C   0  0  0  0  0  0  0  0  0  0  0  0
    7.0396    9.6533   25.5651 C   0  0  0  0  0  0  0  0  0  0  0  0
    8.0599   10.3819   24.9579 C   0  0  0  0  0  0  0  0  0  0  0  0
  1  2  1  0
  2  3  1  0
  3  4  2  0
  4  5  1  0
  5  6  2  0
  5  7  1  0
  7  8  1  0
  8  9  1  0
  9 10  1  0
 10 11  2  0
 11 12  1  0
 12 13  1  0
 13 14  1  0
 14 15  2  0
 15 16  1  0
 16 17  2  0
 17 18  1  0
 17 19  1  0
 19 20  2  0
 13 21  2  0
  4 22  1  0
 22 23  2  0
 23 24  1  0
 24 25  1  0
 25 26  2  0
 25 27  1  0
 24 28  2  0
 28 29  1  0
 29 30  2  0
 30  2  1  0
 21 10  1  0
 30 22  1  0
 20 14  1  0
M  CHG  2  25   1  27  -1
M  END
>  <energy_score>  (53) 
-10.927329

>  <fragmenstein_runtime>  (53) 
nan

>  <HIPPO Pose ID>  (53) 
497933

>  <fragmenstein_error>  (53) 
nan

>  <alias>  (53) 
None

>  <orig_smiles>  (53) 
nan

>  <smiles>  (53) 
None

>  <inchikey>  (53) 
None

>  <HIPPO Compound ID>  (53) 
289883

>  <fragmenstein_mode>  (53) 
nan

>  <fragmenstein_outcome>  (53) 
nan

>  <distance_score>  (53) 
0.987896

>  <subsites>  (53) 
None

>  <scratch_subdir>  (53) 
nan

>  <inspiration_score>  (53) 
None

>  <name>  (53) 
P497933

>  <ref_mols>  (53) 
A2290a,A3436a

>  <ref_pdb>  (53) 
A2290a

>  <exports>  (53) 
['/opt/xchem-fragalysis-2/maxwin/openbind-hippo/a71ev2a/cycle_01/bulkdock/openbind_a71ev2a_c1_elab_chemspace.sdf', '/opt/xchem-fragalysis-2/maxwin/openbind-hippo/a71ev2a/cycle_01/syndirella/elabs/openbind_a71ev2a_c1_elab_chemspace_filtered.sdf', '/opt/xchem-fragalysis-2/maxwin/openbind-hippo/a71ev2a/cycle_01/syndirella/elabs/ASAP-0031281-001_elabs.sdf']

>  <Energy>  (53) 
nan

>  <tags>  (53) 
openbind_a71ev2a_c1_elabs_filtered

>  <GNINA pK>  (53) 
nan

$$$$
P497934
     RDKit          3D

 30 32  0  0  0  0  0  0  0  0999 V2000
    9.1645    8.9850   23.7182 C   0  0  0  0  0  0  0  0  0  0  0  0
    8.6420   10.2842   24.0748 N   0  0  0  0  0  0  0  0  0  0  0  0
    9.0298   11.3424   23.3554 N   0  0  0  0  0  0  0  0  0  0  0  0
    8.3347   12.3811   23.8722 C   0  0  0  0  0  0  0  0  0  0  0  0
    8.5235   13.7298   23.3171 C   0  0  0  0  0  0  0  0  0  0  0  0
    8.0188   14.6907   23.7261 O   0  0  0  0  0  0  0  0  0  0  0  0
    9.5602   13.5507   22.2194 N   0  0  0  0  0  0  0  0  0  0  0  0
   10.2833   14.5311   21.4385 C   0  0  2  0  0  0  0  0  0  0  0  0
    9.7274   14.8742   20.1035 C   0  0  0  0  0  0  0  0  0  0  0  0
    9.4817   16.3020   19.8828 C   0  0  0  0  0  0  0  0  0  0  0  0
    9.5690   16.9998   18.7039 C   0  0  0  0  0  0  0  0  0  0  0  0
    8.8947   18.1671   18.8632 O   0  0  0  0  0  0  0  0  0  0  0  0
    8.5014   18.1400   20.1676 C   0  0  0  0  0  0  0  0  0  0  0  0
    8.8629   17.0653   20.8317 N   0  0  0  0  0  0  0  0  0  0  0  0
   11.5697   13.7632   21.1917 C   0  0  0  0  0  0  0  0  0  0  0  0
   12.3528   13.9824   20.2710 O   0  0  0  0  0  0  0  0  0  0  0  0
   11.8071   12.8163   22.1943 O   0  0  0  0  0  0  0  0  0  0  0  0
   12.3783   13.3679   23.3816 C   0  0  0  0  0  0  0  0  0  0  0  0
   13.0438   12.2910   24.2160 C   0  0  0  0  0  0  0  0  0  0  0  0
   13.3324   14.3958   22.8697 C   0  0  0  0  0  0  0  0  0  0  0  0
   11.4144   13.9534   24.4148 C   0  0  0  0  0  0  0  0  0  0  0  0
    7.6197   11.9973   25.0195 C   0  0  0  0  0  0  0  0  0  0  0  0
    6.8355   12.6717   25.9685 C   0  0  0  0  0  0  0  0  0  0  0  0
    6.1413   11.8942   26.8986 C   0  0  0  0  0  0  0  0  0  0  0  0
    5.2725   12.5564   27.8659 N   0  0  0  0  0  0  0  0  0  0  0  0
    5.6399   13.6557   28.3022 O   0  0  0  0  0  0  0  0  0  0  0  0
    4.2426   11.9591   28.2119 O   0  0  0  0  0  0  0  0  0  0  0  0
    6.2273   10.5004   26.9070 C   0  0  0  0  0  0  0  0  0  0  0  0
    7.0474    9.8436   25.9897 C   0  0  0  0  0  0  0  0  0  0  0  0
    7.7613   10.6125   25.0750 C   0  0  0  0  0  0  0  0  0  0  0  0
  1  2  1  0
  2  3  1  0
  3  4  2  0
  4  5  1  0
  5  6  2  0
  5  7  1  0
  7  8  1  0
  8  9  1  6
  9 10  1  0
 10 11  2  0
 11 12  1  0
 12 13  1  0
 13 14  2  0
  8 15  1  0
 15 16  2  0
 15 17  1  0
 17 18  1  0
 18 19  1  0
 18 20  1  0
 18 21  1  0
  4 22  1  0
 22 23  2  0
 23 24  1  0
 24 25  1  0
 25 26  2  0
 25 27  1  0
 24 28  2  0
 28 29  1  0
 29 30  2  0
 30  2  1  0
 14 10  1  0
 30 22  1  0
M  CHG  2  25   1  27  -1
M  END
>  <energy_score>  (54) 
-21.844889

>  <fragmenstein_runtime>  (54) 
nan

>  <HIPPO Pose ID>  (54) 
497934

>  <fragmenstein_error>  (54) 
nan

>  <alias>  (54) 
None

>  <orig_smiles>  (54) 
nan

>  <smiles>  (54) 
None

>  <inchikey>  (54) 
None

>  <HIPPO Compound ID>  (54) 
289885

>  <fragmenstein_mode>  (54) 
nan

>  <fragmenstein_outcome>  (54) 
nan

>  <distance_score>  (54) 
1.622746

>  <subsites>  (54) 
None

>  <scratch_subdir>  (54) 
nan

>  <inspiration_score>  (54) 
None

>  <name>  (54) 
P497934

>  <ref_mols>  (54) 
A2290a,A3436a

>  <ref_pdb>  (54) 
A2290a

>  <exports>  (54) 
['/opt/xchem-fragalysis-2/maxwin/openbind-hippo/a71ev2a/cycle_01/bulkdock/openbind_a71ev2a_c1_elab_chemspace.sdf', '/opt/xchem-fragalysis-2/maxwin/openbind-hippo/a71ev2a/cycle_01/syndirella/elabs/openbind_a71ev2a_c1_elab_chemspace_filtered.sdf', '/opt/xchem-fragalysis-2/maxwin/openbind-hippo/a71ev2a/cycle_01/syndirella/elabs/ASAP-0031281-001_elabs.sdf']

>  <Energy>  (54) 
nan

>  <tags>  (54) 
openbind_a71ev2a_c1_elabs_filtered

>  <GNINA pK>  (54) 
nan

$$$$
P497935
     RDKit          3D

 30 33  0  0  0  0  0  0  0  0999 V2000
    3.5376   12.2883   28.9178 C   0  0  0  0  0  0  0  0  0  0  0  0
    4.4082   11.6779   27.9645 O   0  0  0  0  0  0  0  0  0  0  0  0
    5.6247   12.2739   27.8783 C   0  0  0  0  0  0  0  0  0  0  0  0
    6.0075   13.2293   28.5337 O   0  0  0  0  0  0  0  0  0  0  0  0
    6.4549   11.6003   26.8507 C   0  0  0  0  0  0  0  0  0  0  0  0
    6.2590   10.2605   26.5135 C   0  0  0  0  0  0  0  0  0  0  0  0
    7.0683    9.6324   25.5621 C   0  0  0  0  0  0  0  0  0  0  0  0
    8.0745   10.3716   24.9461 C   0  0  0  0  0  0  0  0  0  0  0  0
    8.2991   11.7007   25.2875 C   0  0  0  0  0  0  0  0  0  0  0  0
    7.4892   12.3300   26.2511 C   0  0  0  0  0  0  0  0  0  0  0  0
    9.4285   12.0704   24.5327 C   0  0  0  0  0  0  0  0  0  0  0  0
   10.2120   13.3021   24.6276 C   0  0  0  0  0  0  0  0  0  0  0  0
   10.0590   14.0926   25.4663 O   0  0  0  0  0  0  0  0  0  0  0  0
   11.2496   13.2300   23.5149 N   0  0  0  0  0  0  0  0  0  0  0  0
   12.2567   14.1494   23.1344 C   0  0  0  0  0  0  0  0  0  0  0  0
   12.6298   14.0714   21.6854 C   0  0  0  0  0  0  0  0  0  0  0  0
   11.6247   14.5586   20.7533 C   0  0  0  0  0  0  0  0  0  0  0  0
   11.6605   14.4189   19.3936 C   0  0  0  0  0  0  0  0  0  0  0  0
   10.6418   15.1160   18.8875 O   0  0  0  0  0  0  0  0  0  0  0  0
   10.1004   15.7331   19.9613 C   0  0  0  0  0  0  0  0  0  0  0  0
    9.3093   16.8681   19.6226 C   0  0  0  0  0  0  0  0  0  0  0  0
    9.0691   17.1913   18.2961 C   0  0  0  0  0  0  0  0  0  0  0  0
    8.1907   18.1927   17.9980 C   0  0  0  0  0  0  0  0  0  0  0  0
    7.6592   18.9564   19.0116 C   0  0  0  0  0  0  0  0  0  0  0  0
    8.0632   18.7737   20.3023 C   0  0  0  0  0  0  0  0  0  0  0  0
    8.8119   17.6775   20.6193 C   0  0  0  0  0  0  0  0  0  0  0  0
   10.5803   15.3545   21.1254 N   0  0  0  0  0  0  0  0  0  0  0  0
    9.8224   11.0867   23.6997 N   0  0  0  0  0  0  0  0  0  0  0  0
    9.0060   10.0662   23.9830 N   0  0  0  0  0  0  0  0  0  0  0  0
    9.2108    8.8284   23.2702 C   0  0  0  0  0  0  0  0  0  0  0  0
  1  2  1  0
  2  3  1  0
  3  4  2  0
  3  5  1  0
  5  6  2  0
  6  7  1  0
  7  8  2  0
  8  9  1  0
  9 10  2  0
  9 11  1  0
 11 12  1  0
 12 13  2  0
 12 14  1  0
 14 15  1  0
 15 16  1  0
 16 17  1  0
 17 18  2  0
 18 19  1  0
 19 20  1  0
 20 21  1  0
 21 22  2  0
 22 23  1  0
 23 24  2  0
 24 25  1  0
 25 26  2  0
 20 27  2  0
 11 28  2  0
 28 29  1  0
 29 30  1  0
 10  5  1  0
 27 17  1  0
 29  8  1  0
 26 21  1  0
M  END
>  <energy_score>  (55) 
-26.88325

>  <fragmenstein_runtime>  (55) 
nan

>  <HIPPO Pose ID>  (55) 
497935

>  <fragmenstein_error>  (55) 
nan

>  <alias>  (55) 
None

>  <orig_smiles>  (55) 
nan

>  <smiles>  (55) 
None

>  <inchikey>  (55) 
None

>  <HIPPO Compound ID>  (55) 
289892

>  <fragmenstein_mode>  (55) 
nan

>  <fragmenstein_outcome>  (55) 
nan

>  <distance_score>  (55) 
0.974508

>  <subsites>  (55) 
None

>  <scratch_subdir>  (55) 
nan

>  <inspiration_score>  (55) 
None

>  <name>  (55) 
P497935

>  <ref_mols>  (55) 
A2290a,A3436a

>  <ref_pdb>  (55) 
A2290a

>  <exports>  (55) 
['/opt/xchem-fragalysis-2/maxwin/openbind-hippo/a71ev2a/cycle_01/syndirella/elabs/openbind_a71ev2a_c1_elab_chemspace_filtered.sdf', '/opt/xchem-fragalysis-2/maxwin/openbind-hippo/a71ev2a/cycle_01/syndirella/elabs/ASAP-0031281-001_elabs.sdf']

>  <Energy>  (55) 
nan

>  <tags>  (55) 
openbind_a71ev2a_c1_elabs_filtered

>  <GNINA pK>  (55) 
nan

$$$$
P497936
     RDKit          3D

 30 33  0  0  0  0  0  0  0  0999 V2000
   14.3771   11.9901   24.9248 C   0  0  0  0  0  0  0  0  0  0  0  0
   13.4850   12.5609   23.9456 O   0  0  0  0  0  0  0  0  0  0  0  0
   12.5639   13.4395   24.4004 C   0  0  0  0  0  0  0  0  0  0  0  0
   12.4067   13.6878   25.5963 O   0  0  0  0  0  0  0  0  0  0  0  0
   11.6594   14.0876   23.3526 C   0  0  1  0  0  0  0  0  0  0  0  0
   12.0131   13.9554   21.8730 C   0  0  0  0  0  0  0  0  0  0  0  0
   11.0664   14.7049   20.9885 C   0  0  0  0  0  0  0  0  0  0  0  0
   10.9688   14.7668   19.6169 C   0  0  0  0  0  0  0  0  0  0  0  0
    9.9866   15.6601   19.2952 O   0  0  0  0  0  0  0  0  0  0  0  0
    9.5520   16.1148   20.4944 C   0  0  0  0  0  0  0  0  0  0  0  0
   10.1223   15.5429   21.5271 N   0  0  0  0  0  0  0  0  0  0  0  0
   10.4053   13.4989   23.7424 N   0  0  0  0  0  0  0  0  0  0  0  0
    9.4464   13.8571   24.8937 C   0  0  0  0  0  0  0  0  0  0  0  0
    9.4813   14.7343   25.6619 O   0  0  0  0  0  0  0  0  0  0  0  0
    8.4587   12.7881   24.9413 C   0  0  0  0  0  0  0  0  0  0  0  0
    8.5481   11.8035   24.0366 N   0  0  0  0  0  0  0  0  0  0  0  0
    7.9690   10.7782   24.6512 N   0  0  0  0  0  0  0  0  0  0  0  0
    8.3986    9.4487   24.3151 C   0  0  0  0  0  0  0  0  0  0  0  0
    9.2488    9.4615   23.0693 C   0  0  2  0  0  0  0  0  0  0  0  0
    9.1492    8.1507   22.3727 C   0  0  0  0  0  0  0  0  0  0  0  0
   10.0089    7.4172   23.1777 N   0  0  0  0  0  0  0  0  0  0  0  0
   10.9860    8.2485   23.5727 C   0  0  0  0  0  0  0  0  0  0  0  0
   12.0319    7.8722   24.0244 O   0  0  0  0  0  0  0  0  0  0  0  0
   10.6106    9.5392   23.4531 O   0  0  0  0  0  0  0  0  0  0  0  0
    7.2214   11.1197   25.7326 C   0  0  0  0  0  0  0  0  0  0  0  0
    6.3964   10.3700   26.5683 C   0  0  0  0  0  0  0  0  0  0  0  0
    5.8583   11.0381   27.6645 C   0  0  0  0  0  0  0  0  0  0  0  0
    6.1611   12.3771   27.9180 C   0  0  0  0  0  0  0  0  0  0  0  0
    7.0123   13.1008   27.0801 C   0  0  0  0  0  0  0  0  0  0  0  0
    7.5285   12.4606   25.9504 C   0  0  0  0  0  0  0  0  0  0  0  0
  1  2  1  0
  2  3  1  0
  3  4  2  0
  3  5  1  0
  5  6  1  6
  6  7  1  0
  7  8  2  0
  8  9  1  0
  9 10  1  0
 10 11  2  0
  5 12  1  0
 12 13  1  0
 13 14  2  0
 13 15  1  0
 15 16  2  0
 16 17  1  0
 17 18  1  0
 19 18  1  1
 19 20  1  0
 20 21  1  0
 21 22  1  0
 22 23  2  0
 22 24  1  0
 17 25  1  0
 25 26  2  0
 26 27  1  0
 27 28  2  0
 28 29  1  0
 29 30  2  0
 11  7  1  0
 30 15  1  0
 24 19  1  0
 30 25  1  0
M  END
>  <energy_score>  (56) 
-35.463734

>  <fragmenstein_runtime>  (56) 
nan

>  <HIPPO Pose ID>  (56) 
497936

>  <fragmenstein_error>  (56) 
nan

>  <alias>  (56) 
None

>  <orig_smiles>  (56) 
nan

>  <smiles>  (56) 
None

>  <inchikey>  (56) 
None

>  <HIPPO Compound ID>  (56) 
289894

>  <fragmenstein_mode>  (56) 
nan

>  <fragmenstein_outcome>  (56) 
nan

>  <distance_score>  (56) 
1.533607

>  <subsites>  (56) 
None

>  <scratch_subdir>  (56) 
nan

>  <inspiration_score>  (56) 
None

>  <name>  (56) 
P497936

>  <ref_mols>  (56) 
A2290a,A3436a

>  <ref_pdb>  (56) 
A2290a

>  <exports>  (56) 
['/opt/xchem-fragalysis-2/maxwin/openbind-hippo/a71ev2a/cycle_01/syndirella/elabs/openbind_a71ev2a_c1_elab_chemspace_filtered.sdf', '/opt/xchem-fragalysis-2/maxwin/openbind-hippo/a71ev2a/cycle_01/syndirella/elabs/ASAP-0031281-001_elabs.sdf']

>  <Energy>  (56) 
nan

>  <tags>  (56) 
openbind_a71ev2a_c1_elabs_filtered

>  <GNINA pK>  (56) 
nan

$$$$
LLDZPHCJSJZSFN-UHFFFAOYSA-N-P126-P126-P183-601502
     RDKit          3D

 22 24  0  0  0  0  0  0  0  0999 V2000
   12.6525   14.9803   22.0778 C   0  0  0  0  0  0  0  0  0  0  0  0
   11.9008   13.9801   21.2528 C   0  0  2  0  0  0  0  0  0  0  0  0
   11.2939   14.5465   19.9696 C   0  0  0  0  0  0  0  0  0  0  0  0
   10.2403   15.5790   20.0278 C   0  0  0  0  0  0  0  0  0  0  0  0
    9.8782   16.4280   19.0030 C   0  0  0  0  0  0  0  0  0  0  0  0
    9.0145   17.3478   19.4909 O   0  0  0  0  0  0  0  0  0  0  0  0
    8.8554   16.9691   20.7831 C   0  0  0  0  0  0  0  0  0  0  0  0
    9.5247   15.8929   21.1453 N   0  0  0  0  0  0  0  0  0  0  0  0
   11.0378   13.1216   22.0239 N   0  0  0  0  0  0  0  0  0  0  0  0
   10.4378   13.3078   23.4254 C   0  0  0  0  0  0  0  0  0  0  0  0
   10.4818   14.2182   24.1514 O   0  0  0  0  0  0  0  0  0  0  0  0
    9.6940   12.0857   23.7761 C   0  0  0  0  0  0  0  0  0  0  0  0
    9.9503   10.9286   23.1419 N   0  0  0  0  0  0  0  0  0  0  0  0
    9.1987   10.0239   23.7798 N   0  0  0  0  0  0  0  0  0  0  0  0
    9.3878    8.6339   23.4562 C   0  0  0  0  0  0  0  0  0  0  0  0
    8.3664   10.5606   24.7308 C   0  0  0  0  0  0  0  0  0  0  0  0
    7.3931    9.9975   25.5679 C   0  0  0  0  0  0  0  0  0  0  0  0
    6.7243   10.8496   26.4485 C   0  0  0  0  0  0  0  0  0  0  0  0
    7.0269   12.2047   26.4855 C   0  0  0  0  0  0  0  0  0  0  0  0
    6.3821   12.9906   27.3584 F   0  0  0  0  0  0  0  0  0  0  0  0
    7.9954   12.7631   25.6535 C   0  0  0  0  0  0  0  0  0  0  0  0
    8.6771   11.9197   24.7571 C   0  0  0  0  0  0  0  0  0  0  0  0
  2  1  1  1
  2  3  1  0
  3  4  1  0
  4  5  2  0
  5  6  1  0
  6  7  1  0
  7  8  2  0
  2  9  1  0
  9 10  1  0
 10 11  2  0
 10 12  1  0
 12 13  2  0
 13 14  1  0
 14 15  1  0
 14 16  1  0
 16 17  2  0
 17 18  1  0
 18 19  2  0
 19 20  1  0
 19 21  1  0
 21 22  2  0
  8  4  1  0
 22 12  1  0
 22 16  1  0
M  END
>  <energy_score>  (57) 
-10.968907

>  <fragmenstein_runtime>  (57) 
3.667751

>  <HIPPO Pose ID>  (57) 
503376

>  <fragmenstein_error>  (57) 


>  <alias>  (57) 
LLDZPHCJSJZSFN-UHFFFAOYSA-N-P126-P126-P183-601502

>  <orig_smiles>  (57) 
CC(Cc1cocn1)NC(=O)c1nn(C)c2ccc(F)cc12

>  <smiles>  (57) 
CC(Cc1cocn1)NC(=O)c1nn(C)c2ccc(F)cc12

>  <inchikey>  (57) 
LLDZPHCJSJZSFN-UHFFFAOYSA-N

>  <HIPPO Compound ID>  (57) 
191887

>  <fragmenstein_mode>  (57) 
expansion

>  <fragmenstein_outcome>  (57) 
acceptable

>  <distance_score>  (57) 
0.717811

>  <subsites>  (57) 
None

>  <scratch_subdir>  (57) 
/opt/xchem-fragalysis-2/maxwin/BulkDock/SCRATCH/601502/LLDZPHCJSJZSFN-UHFFFAOYSA-N-P126-P126-P183-601502

>  <inspiration_score>  (57) 
None

>  <name>  (57) 
LLDZPHCJSJZSFN-UHFFFAOYSA-N-P126-P126-P183-601502

>  <ref_mols>  (57) 
A2290a,A3436a

>  <ref_pdb>  (57) 
A0514a

>  <exports>  (57) 
['/opt/xchem-fragalysis-2/maxwin/openbind-hippo/a71ev2a/cycle_01/syndirella/elabs/openbind_a71ev2a_c1_elab_chemspace_filtered.sdf', '/opt/xchem-fragalysis-2/maxwin/BulkDock/OUTPUTS/a71ev2a_c1_elab_bulkdock_input_1GFT2LV.sdf', '/opt/xchem-fragalysis-2/maxwin/openbind-hippo/a71ev2a/cycle_01/syndirella/elabs/ASAP-0031281-001_elabs.sdf']

>  <Energy>  (57) 
75.467813

>  <tags>  (57) 
fragmenstein_placed,a71ev2a_c1_elab_bulkdock_input,BulkDock Fragalysis export,openbind_a71ev2a_c1_elabs_filtered

>  <GNINA pK>  (57) 
nan

$$$$
LLDZPHCJSJZSFN-UHFFFAOYSA-N-P183-P126-P183-601502
     RDKit          3D

 22 24  0  0  0  0  0  0  0  0999 V2000
   12.4488   14.8277   23.0281 C   0  0  0  0  0  0  0  0  0  0  0  0
   11.9351   13.8642   22.0048 C   0  0  2  0  0  0  0  0  0  0  0  0
   11.8242   14.5003   20.6401 C   0  0  0  0  0  0  0  0  0  0  0  0
   10.6361   15.3169   20.3729 C   0  0  0  0  0  0  0  0  0  0  0  0
   10.2019   15.6974   19.1334 C   0  0  0  0  0  0  0  0  0  0  0  0
    9.2428   16.6382   19.2876 O   0  0  0  0  0  0  0  0  0  0  0  0
    9.1019   16.7379   20.6364 C   0  0  0  0  0  0  0  0  0  0  0  0
    9.8929   15.9491   21.3296 N   0  0  0  0  0  0  0  0  0  0  0  0
   10.8573   13.1007   22.5237 N   0  0  0  0  0  0  0  0  0  0  0  0
    9.8842   13.4014   23.6673 C   0  0  0  0  0  0  0  0  0  0  0  0
    9.7584   14.3571   24.3201 O   0  0  0  0  0  0  0  0  0  0  0  0
    9.1275   12.1818   23.9197 C   0  0  0  0  0  0  0  0  0  0  0  0
    9.4810   11.0356   23.3112 N   0  0  0  0  0  0  0  0  0  0  0  0
    8.8136   10.0930   23.9788 N   0  0  0  0  0  0  0  0  0  0  0  0
    9.1095    8.7199   23.6569 C   0  0  0  0  0  0  0  0  0  0  0  0
    7.9251   10.5991   24.9000 C   0  0  0  0  0  0  0  0  0  0  0  0
    6.9750   10.0083   25.7398 C   0  0  0  0  0  0  0  0  0  0  0  0
    6.2296   10.8383   26.5799 C   0  0  0  0  0  0  0  0  0  0  0  0
    6.4278   12.2110   26.5716 C   0  0  0  0  0  0  0  0  0  0  0  0
    5.7140   12.9763   27.4077 F   0  0  0  0  0  0  0  0  0  0  0  0
    7.3566   12.8060   25.7254 C   0  0  0  0  0  0  0  0  0  0  0  0
    8.1046   11.9797   24.8688 C   0  0  0  0  0  0  0  0  0  0  0  0
  2  1  1  1
  2  3  1  0
  3  4  1  0
  4  5  2  0
  5  6  1  0
  6  7  1  0
  7  8  2  0
  2  9  1  0
  9 10  1  0
 10 11  2  0
 10 12  1  0
 12 13  2  0
 13 14  1  0
 14 15  1  0
 14 16  1  0
 16 17  2  0
 17 18  1  0
 18 19  2  0
 19 20  1  0
 19 21  1  0
 21 22  2  0
  8  4  1  0
 22 12  1  0
 22 16  1  0
M  END
>  <energy_score>  (58) 
-7.378615

>  <fragmenstein_runtime>  (58) 
2.35006

>  <HIPPO Pose ID>  (58) 
503377

>  <fragmenstein_error>  (58) 


>  <alias>  (58) 
LLDZPHCJSJZSFN-UHFFFAOYSA-N-P183-P126-P183-601502

>  <orig_smiles>  (58) 
CC(Cc1cocn1)NC(=O)c1nn(C)c2ccc(F)cc12

>  <smiles>  (58) 
CC(Cc1cocn1)NC(=O)c1nn(C)c2ccc(F)cc12

>  <inchikey>  (58) 
LLDZPHCJSJZSFN-UHFFFAOYSA-N

>  <HIPPO Compound ID>  (58) 
191887

>  <fragmenstein_mode>  (58) 
expansion

>  <fragmenstein_outcome>  (58) 
acceptable

>  <distance_score>  (58) 
0.600622

>  <subsites>  (58) 
None

>  <scratch_subdir>  (58) 
/opt/xchem-fragalysis-2/maxwin/BulkDock/SCRATCH/601502/LLDZPHCJSJZSFN-UHFFFAOYSA-N-P183-P126-P183-601502

>  <inspiration_score>  (58) 
None

>  <name>  (58) 
LLDZPHCJSJZSFN-UHFFFAOYSA-N-P183-P126-P183-601502

>  <ref_mols>  (58) 
A2290a,A3436a

>  <ref_pdb>  (58) 
A0514a

>  <exports>  (58) 
['/opt/xchem-fragalysis-2/maxwin/openbind-hippo/a71ev2a/cycle_01/bulkdock/openbind_a71ev2a_c1_elab_chemspace.sdf', '/opt/xchem-fragalysis-2/maxwin/openbind-hippo/a71ev2a/cycle_01/syndirella/elabs/openbind_a71ev2a_c1_elab_chemspace_filtered.sdf', '/opt/xchem-fragalysis-2/maxwin/BulkDock/OUTPUTS/a71ev2a_c1_elab_bulkdock_input_1GFT2LV.sdf', '/opt/xchem-fragalysis-2/maxwin/openbind-hippo/a71ev2a/cycle_01/syndirella/elabs/ASAP-0031281-001_elabs.sdf']

>  <Energy>  (58) 
79.058104

>  <tags>  (58) 
fragmenstein_placed,a71ev2a_c1_elab_bulkdock_input,BulkDock Fragalysis export,openbind_a71ev2a_c1_elabs_filtered

>  <GNINA pK>  (58) 
nan

$$$$
SKWLCASPHPGKCF-UHFFFAOYSA-N-P126-P126-P183-601502
     RDKit          3D

 22 24  0  0  0  0  0  0  0  0999 V2000
   11.6855   14.5208   18.4365 C   0  0  0  0  0  0  0  0  0  0  0  0
   10.8908   14.9585   19.5744 C   0  0  0  0  0  0  0  0  0  0  0  0
    9.7819   15.7243   19.3881 O   0  0  0  0  0  0  0  0  0  0  0  0
    9.4125   16.0384   20.6588 C   0  0  0  0  0  0  0  0  0  0  0  0
   10.1429   15.4838   21.6017 N   0  0  0  0  0  0  0  0  0  0  0  0
   11.1367   14.8563   20.9136 C   0  0  0  0  0  0  0  0  0  0  0  0
   12.3623   14.2966   21.5153 C   0  0  0  0  0  0  0  0  0  0  0  0
   12.3058   14.1662   23.0095 C   0  0  0  0  0  0  0  0  0  0  0  0
   11.3563   13.2078   23.4471 N   0  0  0  0  0  0  0  0  0  0  0  0
   10.3299   13.2719   24.5719 C   0  0  0  0  0  0  0  0  0  0  0  0
   10.1426   14.0903   25.3768 O   0  0  0  0  0  0  0  0  0  0  0  0
    9.5422   12.0424   24.4892 C   0  0  0  0  0  0  0  0  0  0  0  0
    9.9164   11.0471   23.6634 N   0  0  0  0  0  0  0  0  0  0  0  0
    9.0761   10.0452   23.9496 N   0  0  0  0  0  0  0  0  0  0  0  0
    9.2500    8.8015   23.2388 C   0  0  0  0  0  0  0  0  0  0  0  0
    8.1503   10.3734   24.9116 C   0  0  0  0  0  0  0  0  0  0  0  0
    7.1308    9.6571   25.5380 C   0  0  0  0  0  0  0  0  0  0  0  0
    6.3384   10.3174   26.4800 C   0  0  0  0  0  0  0  0  0  0  0  0
    6.5624   11.6528   26.7790 C   0  0  0  0  0  0  0  0  0  0  0  0
    5.7917   12.2537   27.6954 F   0  0  0  0  0  0  0  0  0  0  0  0
    7.5878   12.3676   26.1742 C   0  0  0  0  0  0  0  0  0  0  0  0
    8.3965   11.7047   25.2349 C   0  0  0  0  0  0  0  0  0  0  0  0
  1  2  1  0
  2  3  1  0
  3  4  1  0
  4  5  2  0
  5  6  1  0
  6  7  1  0
  7  8  1  0
  8  9  1  0
  9 10  1  0
 10 11  2  0
 10 12  1  0
 12 13  2  0
 13 14  1  0
 14 15  1  0
 14 16  1  0
 16 17  2  0
 17 18  1  0
 18 19  2  0
 19 20  1  0
 19 21  1  0
 21 22  2  0
  6  2  2  0
 22 12  1  0
 22 16  1  0
M  END
>  <energy_score>  (59) 
-21.210933

>  <fragmenstein_runtime>  (59) 
3.256242

>  <HIPPO Pose ID>  (59) 
503378

>  <fragmenstein_error>  (59) 


>  <alias>  (59) 
SKWLCASPHPGKCF-UHFFFAOYSA-N-P126-P126-P183-601502

>  <orig_smiles>  (59) 
Cc1ocnc1CCNC(=O)c1nn(C)c2ccc(F)cc12

>  <smiles>  (59) 
Cc1ocnc1CCNC(=O)c1nn(C)c2ccc(F)cc12

>  <inchikey>  (59) 
SKWLCASPHPGKCF-UHFFFAOYSA-N

>  <HIPPO Compound ID>  (59) 
250891

>  <fragmenstein_mode>  (59) 
expansion

>  <fragmenstein_outcome>  (59) 
acceptable

>  <distance_score>  (59) 
0.738298

>  <subsites>  (59) 
None

>  <scratch_subdir>  (59) 
/opt/xchem-fragalysis-2/maxwin/BulkDock/SCRATCH/601502/SKWLCASPHPGKCF-UHFFFAOYSA-N-P126-P126-P183-601502

>  <inspiration_score>  (59) 
None

>  <name>  (59) 
SKWLCASPHPGKCF-UHFFFAOYSA-N-P126-P126-P183-601502

>  <ref_mols>  (59) 
A2290a,A3436a

>  <ref_pdb>  (59) 
A0514a

>  <exports>  (59) 
['/opt/xchem-fragalysis-2/maxwin/openbind-hippo/a71ev2a/cycle_01/syndirella/elabs/openbind_a71ev2a_c1_elab_chemspace_filtered.sdf', '/opt/xchem-fragalysis-2/maxwin/BulkDock/OUTPUTS/a71ev2a_c1_elab_bulkdock_input_1GFT2LV.sdf', '/opt/xchem-fragalysis-2/maxwin/openbind-hippo/a71ev2a/cycle_01/syndirella/elabs/ASAP-0031281-001_elabs.sdf']

>  <Energy>  (59) 
70.071892

>  <tags>  (59) 
fragmenstein_placed,a71ev2a_c1_elab_bulkdock_input,BulkDock Fragalysis export,openbind_a71ev2a_c1_elabs_filtered

>  <GNINA pK>  (59) 
nan

$$$$
SKWLCASPHPGKCF-UHFFFAOYSA-N-P183-P126-P183-601502
     RDKit          3D

 22 24  0  0  0  0  0  0  0  0999 V2000
   11.3920   14.8293   18.3288 C   0  0  0  0  0  0  0  0  0  0  0  0
   10.6544   15.3361   19.4768 C   0  0  0  0  0  0  0  0  0  0  0  0
    9.5478   16.1009   19.2720 O   0  0  0  0  0  0  0  0  0  0  0  0
    9.1794   16.4608   20.5334 C   0  0  0  0  0  0  0  0  0  0  0  0
    9.9261   15.9554   21.4878 N   0  0  0  0  0  0  0  0  0  0  0  0
   10.9121   15.2873   20.8199 C   0  0  0  0  0  0  0  0  0  0  0  0
   12.1185   14.7200   21.4623 C   0  0  0  0  0  0  0  0  0  0  0  0
   11.9948   14.5389   22.9540 C   0  0  0  0  0  0  0  0  0  0  0  0
   10.9886   13.5882   23.2850 N   0  0  0  0  0  0  0  0  0  0  0  0
    9.9442   13.5973   24.3923 C   0  0  0  0  0  0  0  0  0  0  0  0
    9.6799   14.4167   25.1726 O   0  0  0  0  0  0  0  0  0  0  0  0
    9.2347   12.3200   24.3396 C   0  0  0  0  0  0  0  0  0  0  0  0
    9.6878   11.2977   23.5903 N   0  0  0  0  0  0  0  0  0  0  0  0
    8.9547   10.2480   23.9915 N   0  0  0  0  0  0  0  0  0  0  0  0
    9.2994    8.9472   23.4645 C   0  0  0  0  0  0  0  0  0  0  0  0
    7.9917   10.5829   24.9179 C   0  0  0  0  0  0  0  0  0  0  0  0
    7.0366    9.8442   25.6210 C   0  0  0  0  0  0  0  0  0  0  0  0
    6.1834   10.5185   26.4980 C   0  0  0  0  0  0  0  0  0  0  0  0
    6.2770   11.8920   26.6542 C   0  0  0  0  0  0  0  0  0  0  0  0
    5.4530   12.5079   27.5121 F   0  0  0  0  0  0  0  0  0  0  0  0
    7.2257   12.6334   25.9634 C   0  0  0  0  0  0  0  0  0  0  0  0
    8.1018   11.9574   25.0947 C   0  0  0  0  0  0  0  0  0  0  0  0
  1  2  1  0
  2  3  1  0
  3  4  1  0
  4  5  2  0
  5  6  1  0
  6  7  1  0
  7  8  1  0
  8  9  1  0
  9 10  1  0
 10 11  2  0
 10 12  1  0
 12 13  2  0
 13 14  1  0
 14 15  1  0
 14 16  1  0
 16 17  2  0
 17 18  1  0
 18 19  2  0
 19 20  1  0
 19 21  1  0
 21 22  2  0
  6  2  2  0
 22 12  1  0
 22 16  1  0
M  END
>  <energy_score>  (60) 
-22.255064

>  <fragmenstein_runtime>  (60) 
3.585819

>  <HIPPO Pose ID>  (60) 
503379

>  <fragmenstein_error>  (60) 


>  <alias>  (60) 
SKWLCASPHPGKCF-UHFFFAOYSA-N-P183-P126-P183-601502

>  <orig_smiles>  (60) 
Cc1ocnc1CCNC(=O)c1nn(C)c2ccc(F)cc12

>  <smiles>  (60) 
Cc1ocnc1CCNC(=O)c1nn(C)c2ccc(F)cc12

>  <inchikey>  (60) 
SKWLCASPHPGKCF-UHFFFAOYSA-N

>  <HIPPO Compound ID>  (60) 
250891

>  <fragmenstein_mode>  (60) 
expansion

>  <fragmenstein_outcome>  (60) 
acceptable

>  <distance_score>  (60) 
0.712371

>  <subsites>  (60) 
None

>  <scratch_subdir>  (60) 
/opt/xchem-fragalysis-2/maxwin/BulkDock/SCRATCH/601502/SKWLCASPHPGKCF-UHFFFAOYSA-N-P183-P126-P183-601502

>  <inspiration_score>  (60) 
None

>  <name>  (60) 
SKWLCASPHPGKCF-UHFFFAOYSA-N-P183-P126-P183-601502

>  <ref_mols>  (60) 
A2290a,A3436a

>  <ref_pdb>  (60) 
A0514a

>  <exports>  (60) 
['/opt/xchem-fragalysis-2/maxwin/openbind-hippo/a71ev2a/cycle_01/bulkdock/openbind_a71ev2a_c1_elab_chemspace.sdf', '/opt/xchem-fragalysis-2/maxwin/openbind-hippo/a71ev2a/cycle_01/syndirella/elabs/openbind_a71ev2a_c1_elab_chemspace_filtered.sdf', '/opt/xchem-fragalysis-2/maxwin/BulkDock/OUTPUTS/a71ev2a_c1_elab_bulkdock_input_1GFT2LV.sdf', '/opt/xchem-fragalysis-2/maxwin/openbind-hippo/a71ev2a/cycle_01/syndirella/elabs/ASAP-0031281-001_elabs.sdf']

>  <Energy>  (60) 
69.027761

>  <tags>  (60) 
fragmenstein_placed,a71ev2a_c1_elab_bulkdock_input,BulkDock Fragalysis export,openbind_a71ev2a_c1_elabs_filtered

>  <GNINA pK>  (60) 
nan

$$$$
IIHQBSBEBQSMSZ-UHFFFAOYSA-N-P126-P126-P183-601502
     RDKit          3D

 22 24  0  0  0  0  0  0  0  0999 V2000
    8.5927   17.4018   20.7008 C   0  0  0  0  0  0  0  0  0  0  0  0
    9.5635   16.3208   20.4676 C   0  0  0  0  0  0  0  0  0  0  0  0
   10.3373   15.7219   21.3450 N   0  0  0  0  0  0  0  0  0  0  0  0
   11.1630   14.9388   20.5868 C   0  0  0  0  0  0  0  0  0  0  0  0
   12.3878   14.3359   21.1521 C   0  0  0  0  0  0  0  0  0  0  0  0
   12.3328   14.1895   22.6558 C   0  0  0  0  0  0  0  0  0  0  0  0
   11.3208   13.2806   23.0847 N   0  0  0  0  0  0  0  0  0  0  0  0
   10.4662   13.2717   24.3498 C   0  0  0  0  0  0  0  0  0  0  0  0
   10.3915   14.0455   25.2159 O   0  0  0  0  0  0  0  0  0  0  0  0
    9.6707   12.0407   24.3285 C   0  0  0  0  0  0  0  0  0  0  0  0
   10.0077   11.0205   23.5171 N   0  0  0  0  0  0  0  0  0  0  0  0
    9.1711   10.0323   23.8635 N   0  0  0  0  0  0  0  0  0  0  0  0
    9.3129    8.7637   23.1918 C   0  0  0  0  0  0  0  0  0  0  0  0
    8.2671   10.3951   24.8328 C   0  0  0  0  0  0  0  0  0  0  0  0
    7.2493    9.7034   25.4934 C   0  0  0  0  0  0  0  0  0  0  0  0
    6.4814   10.3975   26.4314 C   0  0  0  0  0  0  0  0  0  0  0  0
    6.7304   11.7367   26.6950 C   0  0  0  0  0  0  0  0  0  0  0  0
    5.9850   12.3699   27.6106 F   0  0  0  0  0  0  0  0  0  0  0  0
    7.7554   12.4241   26.0556 C   0  0  0  0  0  0  0  0  0  0  0  0
    8.5401   11.7306   25.1169 C   0  0  0  0  0  0  0  0  0  0  0  0
   10.7618   14.9994   19.2786 C   0  0  0  0  0  0  0  0  0  0  0  0
    9.7280   15.8804   19.1878 O   0  0  0  0  0  0  0  0  0  0  0  0
  1  2  1  0
  2  3  2  0
  3  4  1  0
  4  5  1  0
  5  6  1  0
  6  7  1  0
  7  8  1  0
  8  9  2  0
  8 10  1  0
 10 11  2  0
 11 12  1  0
 12 13  1  0
 12 14  1  0
 14 15  2  0
 15 16  1  0
 16 17  2  0
 17 18  1  0
 17 19  1  0
 19 20  2  0
  4 21  2  0
 21 22  1  0
 22  2  1  0
 20 10  1  0
 20 14  1  0
M  END
>  <energy_score>  (61) 
-10.521861

>  <fragmenstein_runtime>  (61) 
2.006623

>  <HIPPO Pose ID>  (61) 
503380

>  <fragmenstein_error>  (61) 


>  <alias>  (61) 
IIHQBSBEBQSMSZ-UHFFFAOYSA-N-P126-P126-P183-601502

>  <orig_smiles>  (61) 
Cc1nc(CCNC(=O)c2nn(C)c3ccc(F)cc23)co1

>  <smiles>  (61) 
Cc1nc(CCNC(=O)c2nn(C)c3ccc(F)cc23)co1

>  <inchikey>  (61) 
IIHQBSBEBQSMSZ-UHFFFAOYSA-N

>  <HIPPO Compound ID>  (61) 
289825

>  <fragmenstein_mode>  (61) 
expansion

>  <fragmenstein_outcome>  (61) 
acceptable

>  <distance_score>  (61) 
0.533466

>  <subsites>  (61) 
None

>  <scratch_subdir>  (61) 
/opt/xchem-fragalysis-2/maxwin/BulkDock/SCRATCH/601502/IIHQBSBEBQSMSZ-UHFFFAOYSA-N-P126-P126-P183-601502

>  <inspiration_score>  (61) 
None

>  <name>  (61) 
IIHQBSBEBQSMSZ-UHFFFAOYSA-N-P126-P126-P183-601502

>  <ref_mols>  (61) 
A2290a,A3436a

>  <ref_pdb>  (61) 
A0514a

>  <exports>  (61) 
['/opt/xchem-fragalysis-2/maxwin/openbind-hippo/a71ev2a/cycle_01/syndirella/elabs/openbind_a71ev2a_c1_elab_chemspace_filtered.sdf', '/opt/xchem-fragalysis-2/maxwin/BulkDock/OUTPUTS/a71ev2a_c1_elab_bulkdock_input_1GFT2LV.sdf', '/opt/xchem-fragalysis-2/maxwin/openbind-hippo/a71ev2a/cycle_01/syndirella/elabs/ASAP-0031281-001_elabs.sdf']

>  <Energy>  (61) 
67.07007

>  <tags>  (61) 
fragmenstein_placed,a71ev2a_c1_elab_bulkdock_input,BulkDock Fragalysis export,openbind_a71ev2a_c1_elabs_filtered

>  <GNINA pK>  (61) 
nan

$$$$
IIHQBSBEBQSMSZ-UHFFFAOYSA-N-P183-P126-P183-601502
     RDKit          3D

 22 24  0  0  0  0  0  0  0  0999 V2000
    8.4791   17.5962   20.4269 C   0  0  0  0  0  0  0  0  0  0  0  0
    9.4953   16.5657   20.2199 C   0  0  0  0  0  0  0  0  0  0  0  0
   10.2751   16.0336   21.1262 N   0  0  0  0  0  0  0  0  0  0  0  0
   11.0769   15.1863   20.4182 C   0  0  0  0  0  0  0  0  0  0  0  0
   12.2344   14.5549   21.0736 C   0  0  0  0  0  0  0  0  0  0  0  0
   12.0736   14.4583   22.5803 C   0  0  0  0  0  0  0  0  0  0  0  0
   11.0373   13.5514   22.9639 N   0  0  0  0  0  0  0  0  0  0  0  0
   10.0975   13.5706   24.1647 C   0  0  0  0  0  0  0  0  0  0  0  0
    9.9576   14.3668   25.0004 O   0  0  0  0  0  0  0  0  0  0  0  0
    9.3459   12.3122   24.1775 C   0  0  0  0  0  0  0  0  0  0  0  0
    9.7496   11.2465   23.4612 N   0  0  0  0  0  0  0  0  0  0  0  0
    9.0073   10.2333   23.9360 N   0  0  0  0  0  0  0  0  0  0  0  0
    9.3210    8.8984   23.4823 C   0  0  0  0  0  0  0  0  0  0  0  0
    8.0648   10.6313   24.8573 C   0  0  0  0  0  0  0  0  0  0  0  0
    7.1009    9.9441   25.6037 C   0  0  0  0  0  0  0  0  0  0  0  0
    6.2770   10.6780   26.4604 C   0  0  0  0  0  0  0  0  0  0  0  0
    6.4130   12.0540   26.5597 C   0  0  0  0  0  0  0  0  0  0  0  0
    5.6201   12.7273   27.4036 F   0  0  0  0  0  0  0  0  0  0  0  0
    7.3734   12.7417   25.8274 C   0  0  0  0  0  0  0  0  0  0  0  0
    8.2182   12.0092   24.9734 C   0  0  0  0  0  0  0  0  0  0  0  0
   10.6923   15.1816   19.1011 C   0  0  0  0  0  0  0  0  0  0  0  0
    9.6625   16.0630   18.9626 O   0  0  0  0  0  0  0  0  0  0  0  0
  1  2  1  0
  2  3  2  0
  3  4  1  0
  4  5  1  0
  5  6  1  0
  6  7  1  0
  7  8  1  0
  8  9  2  0
  8 10  1  0
 10 11  2  0
 11 12  1  0
 12 13  1  0
 12 14  1  0
 14 15  2  0
 15 16  1  0
 16 17  2  0
 17 18  1  0
 17 19  1  0
 19 20  2  0
  4 21  2  0
 21 22  1  0
 22  2  1  0
 20 10  1  0
 20 14  1  0
M  END
>  <energy_score>  (62) 
-10.059549

>  <fragmenstein_runtime>  (62) 
2.24788

>  <HIPPO Pose ID>  (62) 
503381

>  <fragmenstein_error>  (62) 


>  <alias>  (62) 
IIHQBSBEBQSMSZ-UHFFFAOYSA-N-P183-P126-P183-601502

>  <orig_smiles>  (62) 
Cc1nc(CCNC(=O)c2nn(C)c3ccc(F)cc23)co1

>  <smiles>  (62) 
Cc1nc(CCNC(=O)c2nn(C)c3ccc(F)cc23)co1

>  <inchikey>  (62) 
IIHQBSBEBQSMSZ-UHFFFAOYSA-N

>  <HIPPO Compound ID>  (62) 
289825

>  <fragmenstein_mode>  (62) 
expansion

>  <fragmenstein_outcome>  (62) 
acceptable

>  <distance_score>  (62) 
0.54361

>  <subsites>  (62) 
None

>  <scratch_subdir>  (62) 
/opt/xchem-fragalysis-2/maxwin/BulkDock/SCRATCH/601502/IIHQBSBEBQSMSZ-UHFFFAOYSA-N-P183-P126-P183-601502

>  <inspiration_score>  (62) 
None

>  <name>  (62) 
IIHQBSBEBQSMSZ-UHFFFAOYSA-N-P183-P126-P183-601502

>  <ref_mols>  (62) 
A2290a,A3436a

>  <ref_pdb>  (62) 
A0514a

>  <exports>  (62) 
['/opt/xchem-fragalysis-2/maxwin/openbind-hippo/a71ev2a/cycle_01/syndirella/elabs/openbind_a71ev2a_c1_elab_chemspace_filtered.sdf', '/opt/xchem-fragalysis-2/maxwin/BulkDock/OUTPUTS/a71ev2a_c1_elab_bulkdock_input_1GFT2LV.sdf', '/opt/xchem-fragalysis-2/maxwin/openbind-hippo/a71ev2a/cycle_01/syndirella/elabs/ASAP-0031281-001_elabs.sdf']

>  <Energy>  (62) 
67.532381

>  <tags>  (62) 
fragmenstein_placed,a71ev2a_c1_elab_bulkdock_input,BulkDock Fragalysis export,openbind_a71ev2a_c1_elabs_filtered

>  <GNINA pK>  (62) 
nan

$$$$
PTLSPUZRFSQXHO-UHFFFAOYSA-N-P126-P126-P183-601502
     RDKit          3D

 22 24  0  0  0  0  0  0  0  0999 V2000
   11.6966   14.4550   18.6093 C   0  0  0  0  0  0  0  0  0  0  0  0
   10.8338   15.0270   19.6373 C   0  0  0  0  0  0  0  0  0  0  0  0
    9.7565   15.7665   19.2307 O   0  0  0  0  0  0  0  0  0  0  0  0
    9.2965   16.3107   20.3849 C   0  0  0  0  0  0  0  0  0  0  0  0
    9.8905   15.8724   21.4616 N   0  0  0  0  0  0  0  0  0  0  0  0
   10.9664   15.1886   20.9932 C   0  0  0  0  0  0  0  0  0  0  0  0
   12.1433   14.9923   21.8619 C   0  0  0  0  0  0  0  0  0  0  0  0
   12.4684   13.5725   22.2064 C   0  0  0  0  0  0  0  0  0  0  0  0
   11.3850   12.8506   22.7595 N   0  0  0  0  0  0  0  0  0  0  0  0
   10.5988   13.0723   24.0543 C   0  0  0  0  0  0  0  0  0  0  0  0
   10.6633   13.9299   24.8400 O   0  0  0  0  0  0  0  0  0  0  0  0
    9.7039   11.9209   24.1764 C   0  0  0  0  0  0  0  0  0  0  0  0
    9.9426   10.8460   23.4069 N   0  0  0  0  0  0  0  0  0  0  0  0
    9.0864    9.9225   23.8366 N   0  0  0  0  0  0  0  0  0  0  0  0
    9.1635    8.6271   23.2140 C   0  0  0  0  0  0  0  0  0  0  0  0
    8.2419   10.3786   24.8188 C   0  0  0  0  0  0  0  0  0  0  0  0
    7.2082    9.7765   25.5388 C   0  0  0  0  0  0  0  0  0  0  0  0
    6.5128   10.5549   26.4683 C   0  0  0  0  0  0  0  0  0  0  0  0
    6.8471   11.8908   26.6695 C   0  0  0  0  0  0  0  0  0  0  0  0
    5.8874   12.9054   27.9449 Br  0  0  0  0  0  0  0  0  0  0  0  0
    7.8911   12.4884   25.9629 C   0  0  0  0  0  0  0  0  0  0  0  0
    8.5996   11.7110   25.0292 C   0  0  0  0  0  0  0  0  0  0  0  0
  1  2  1  0
  2  3  1  0
  3  4  1  0
  4  5  2  0
  5  6  1  0
  6  7  1  0
  7  8  1  0
  8  9  1  0
  9 10  1  0
 10 11  2  0
 10 12  1  0
 12 13  2  0
 13 14  1  0
 14 15  1  0
 14 16  1  0
 16 17  2  0
 17 18  1  0
 18 19  2  0
 19 20  1  0
 19 21  1  0
 21 22  2  0
  6  2  2  0
 22 12  1  0
 22 16  1  0
M  END
>  <energy_score>  (63) 
-15.168538

>  <fragmenstein_runtime>  (63) 
3.162477

>  <HIPPO Pose ID>  (63) 
503382

>  <fragmenstein_error>  (63) 


>  <alias>  (63) 
PTLSPUZRFSQXHO-UHFFFAOYSA-N-P126-P126-P183-601502

>  <orig_smiles>  (63) 
Cc1ocnc1CCNC(=O)c1nn(C)c2ccc(Br)cc12

>  <smiles>  (63) 
Cc1ocnc1CCNC(=O)c1nn(C)c2ccc(Br)cc12

>  <inchikey>  (63) 
PTLSPUZRFSQXHO-UHFFFAOYSA-N

>  <HIPPO Compound ID>  (63) 
289826

>  <fragmenstein_mode>  (63) 
expansion

>  <fragmenstein_outcome>  (63) 
acceptable

>  <distance_score>  (63) 
0.510567

>  <subsites>  (63) 
None

>  <scratch_subdir>  (63) 
/opt/xchem-fragalysis-2/maxwin/BulkDock/SCRATCH/601502/PTLSPUZRFSQXHO-UHFFFAOYSA-N-P126-P126-P183-601502

>  <inspiration_score>  (63) 
None

>  <name>  (63) 
PTLSPUZRFSQXHO-UHFFFAOYSA-N-P126-P126-P183-601502

>  <ref_mols>  (63) 
A2290a,A3436a

>  <ref_pdb>  (63) 
A0514a

>  <exports>  (63) 
['/opt/xchem-fragalysis-2/maxwin/openbind-hippo/a71ev2a/cycle_01/syndirella/elabs/openbind_a71ev2a_c1_elab_chemspace_filtered.sdf', '/opt/xchem-fragalysis-2/maxwin/BulkDock/OUTPUTS/a71ev2a_c1_elab_bulkdock_input_1GFT2LV.sdf', '/opt/xchem-fragalysis-2/maxwin/openbind-hippo/a71ev2a/cycle_01/syndirella/elabs/ASAP-0031281-001_elabs.sdf']

>  <Energy>  (63) 
74.872221

>  <tags>  (63) 
fragmenstein_placed,a71ev2a_c1_elab_bulkdock_input,BulkDock Fragalysis export,openbind_a71ev2a_c1_elabs_filtered

>  <GNINA pK>  (63) 
nan

$$$$
PTLSPUZRFSQXHO-UHFFFAOYSA-N-P183-P126-P183-601502
     RDKit          3D

 22 24  0  0  0  0  0  0  0  0999 V2000
   11.3934   14.8254   18.3237 C   0  0  0  0  0  0  0  0  0  0  0  0
   10.6550   15.3404   19.4670 C   0  0  0  0  0  0  0  0  0  0  0  0
    9.5506   16.1069   19.2567 O   0  0  0  0  0  0  0  0  0  0  0  0
    9.1848   16.4785   20.5157 C   0  0  0  0  0  0  0  0  0  0  0  0
    9.9313   15.9791   21.4731 N   0  0  0  0  0  0  0  0  0  0  0  0
   10.9125   15.2988   20.8102 C   0  0  0  0  0  0  0  0  0  0  0  0
   12.1155   14.7281   21.4564 C   0  0  0  0  0  0  0  0  0  0  0  0
   11.9837   14.5468   22.9467 C   0  0  0  0  0  0  0  0  0  0  0  0
   10.9611   13.6107   23.2687 N   0  0  0  0  0  0  0  0  0  0  0  0
    9.9561   13.5972   24.4112 C   0  0  0  0  0  0  0  0  0  0  0  0
    9.7433   14.3861   25.2376 O   0  0  0  0  0  0  0  0  0  0  0  0
    9.2451   12.3210   24.3504 C   0  0  0  0  0  0  0  0  0  0  0  0
    9.7047   11.3023   23.5989 N   0  0  0  0  0  0  0  0  0  0  0  0
    8.9619   10.2518   23.9842 N   0  0  0  0  0  0  0  0  0  0  0  0
    9.2941    8.9554   23.4384 C   0  0  0  0  0  0  0  0  0  0  0  0
    8.0018   10.5814   24.9148 C   0  0  0  0  0  0  0  0  0  0  0  0
    7.0460    9.8398   25.6111 C   0  0  0  0  0  0  0  0  0  0  0  0
    6.1861   10.5072   26.4880 C   0  0  0  0  0  0  0  0  0  0  0  0
    6.2740   11.8831   26.6555 C   0  0  0  0  0  0  0  0  0  0  0  0
    5.0940   12.7508   27.8502 Br  0  0  0  0  0  0  0  0  0  0  0  0
    7.2311   12.6258   25.9697 C   0  0  0  0  0  0  0  0  0  0  0  0
    8.1113   11.9534   25.1008 C   0  0  0  0  0  0  0  0  0  0  0  0
  1  2  1  0
  2  3  1  0
  3  4  1  0
  4  5  2  0
  5  6  1  0
  6  7  1  0
  7  8  1  0
  8  9  1  0
  9 10  1  0
 10 11  2  0
 10 12  1  0
 12 13  2  0
 13 14  1  0
 14 15  1  0
 14 16  1  0
 16 17  2  0
 17 18  1  0
 18 19  2  0
 19 20  1  0
 19 21  1  0
 21 22  2  0
  6  2  2  0
 22 12  1  0
 22 16  1  0
M  END
>  <energy_score>  (64) 
-18.429763

>  <fragmenstein_runtime>  (64) 
2.253262

>  <HIPPO Pose ID>  (64) 
503383

>  <fragmenstein_error>  (64) 


>  <alias>  (64) 
PTLSPUZRFSQXHO-UHFFFAOYSA-N-P183-P126-P183-601502

>  <orig_smiles>  (64) 
Cc1ocnc1CCNC(=O)c1nn(C)c2ccc(Br)cc12

>  <smiles>  (64) 
Cc1ocnc1CCNC(=O)c1nn(C)c2ccc(Br)cc12

>  <inchikey>  (64) 
PTLSPUZRFSQXHO-UHFFFAOYSA-N

>  <HIPPO Compound ID>  (64) 
289826

>  <fragmenstein_mode>  (64) 
expansion

>  <fragmenstein_outcome>  (64) 
acceptable

>  <distance_score>  (64) 
0.708221

>  <subsites>  (64) 
None

>  <scratch_subdir>  (64) 
/opt/xchem-fragalysis-2/maxwin/BulkDock/SCRATCH/601502/PTLSPUZRFSQXHO-UHFFFAOYSA-N-P183-P126-P183-601502

>  <inspiration_score>  (64) 
None

>  <name>  (64) 
PTLSPUZRFSQXHO-UHFFFAOYSA-N-P183-P126-P183-601502

>  <ref_mols>  (64) 
A2290a,A3436a

>  <ref_pdb>  (64) 
A0514a

>  <exports>  (64) 
['/opt/xchem-fragalysis-2/maxwin/openbind-hippo/a71ev2a/cycle_01/syndirella/elabs/openbind_a71ev2a_c1_elab_chemspace_filtered.sdf', '/opt/xchem-fragalysis-2/maxwin/BulkDock/OUTPUTS/a71ev2a_c1_elab_bulkdock_input_1GFT2LV.sdf', '/opt/xchem-fragalysis-2/maxwin/openbind-hippo/a71ev2a/cycle_01/syndirella/elabs/ASAP-0031281-001_elabs.sdf']

>  <Energy>  (64) 
71.610996

>  <tags>  (64) 
fragmenstein_placed,a71ev2a_c1_elab_bulkdock_input,BulkDock Fragalysis export,openbind_a71ev2a_c1_elabs_filtered

>  <GNINA pK>  (64) 
nan

$$$$
GRVBCAZAUPUKFZ-UHFFFAOYSA-N-P126-P126-P183-601502
     RDKit          3D

 22 24  0  0  0  0  0  0  0  0999 V2000
    8.5921   17.3952   20.7109 C   0  0  0  0  0  0  0  0  0  0  0  0
    9.5605   16.3121   20.4776 C   0  0  0  0  0  0  0  0  0  0  0  0
   10.3313   15.7087   21.3549 N   0  0  0  0  0  0  0  0  0  0  0  0
   11.1568   14.9273   20.5950 C   0  0  0  0  0  0  0  0  0  0  0  0
   12.3866   14.3293   21.1529 C   0  0  0  0  0  0  0  0  0  0  0  0
   12.3599   14.2073   22.6592 C   0  0  0  0  0  0  0  0  0  0  0  0
   11.4154   13.2465   23.1263 N   0  0  0  0  0  0  0  0  0  0  0  0
   10.4879   13.2743   24.3403 C   0  0  0  0  0  0  0  0  0  0  0  0
   10.3958   14.0509   25.2027 O   0  0  0  0  0  0  0  0  0  0  0  0
    9.6870   12.0456   24.3062 C   0  0  0  0  0  0  0  0  0  0  0  0
   10.0354   11.0248   23.5012 N   0  0  0  0  0  0  0  0  0  0  0  0
    9.1958   10.0350   23.8371 N   0  0  0  0  0  0  0  0  0  0  0  0
    9.3413    8.7669   23.1640 C   0  0  0  0  0  0  0  0  0  0  0  0
    8.2898   10.3937   24.8062 C   0  0  0  0  0  0  0  0  0  0  0  0
    7.2801    9.6950   25.4694 C   0  0  0  0  0  0  0  0  0  0  0  0
    6.5010   10.3834   26.4034 C   0  0  0  0  0  0  0  0  0  0  0  0
    6.7310   11.7302   26.6639 C   0  0  0  0  0  0  0  0  0  0  0  0
    5.6552   12.6266   27.9344 Br  0  0  0  0  0  0  0  0  0  0  0  0
    7.7569   12.4218   26.0213 C   0  0  0  0  0  0  0  0  0  0  0  0
    8.5512   11.7313   25.0867 C   0  0  0  0  0  0  0  0  0  0  0  0
   10.7571   14.9924   19.2863 C   0  0  0  0  0  0  0  0  0  0  0  0
    9.7261   15.8764   19.1965 O   0  0  0  0  0  0  0  0  0  0  0  0
  1  2  1  0
  2  3  2  0
  3  4  1  0
  4  5  1  0
  5  6  1  0
  6  7  1  0
  7  8  1  0
  8  9  2  0
  8 10  1  0
 10 11  2  0
 11 12  1  0
 12 13  1  0
 12 14  1  0
 14 15  2  0
 15 16  1  0
 16 17  2  0
 17 18  1  0
 17 19  1  0
 19 20  2  0
  4 21  2  0
 21 22  1  0
 22  2  1  0
 20 10  1  0
 20 14  1  0
M  END
>  <energy_score>  (65) 
-5.165477

>  <fragmenstein_runtime>  (65) 
2.314126

>  <HIPPO Pose ID>  (65) 
503384

>  <fragmenstein_error>  (65) 


>  <alias>  (65) 
GRVBCAZAUPUKFZ-UHFFFAOYSA-N-P126-P126-P183-601502

>  <orig_smiles>  (65) 
Cc1nc(CCNC(=O)c2nn(C)c3ccc(Br)cc23)co1

>  <smiles>  (65) 
Cc1nc(CCNC(=O)c2nn(C)c3ccc(Br)cc23)co1

>  <inchikey>  (65) 
GRVBCAZAUPUKFZ-UHFFFAOYSA-N

>  <HIPPO Compound ID>  (65) 
289827

>  <fragmenstein_mode>  (65) 
expansion

>  <fragmenstein_outcome>  (65) 
acceptable

>  <distance_score>  (65) 
0.533051

>  <subsites>  (65) 
None

>  <scratch_subdir>  (65) 
/opt/xchem-fragalysis-2/maxwin/BulkDock/SCRATCH/601502/GRVBCAZAUPUKFZ-UHFFFAOYSA-N-P126-P126-P183-601502

>  <inspiration_score>  (65) 
None

>  <name>  (65) 
GRVBCAZAUPUKFZ-UHFFFAOYSA-N-P126-P126-P183-601502

>  <ref_mols>  (65) 
A2290a,A3436a

>  <ref_pdb>  (65) 
A0514a

>  <exports>  (65) 
['/opt/xchem-fragalysis-2/maxwin/openbind-hippo/a71ev2a/cycle_01/syndirella/elabs/openbind_a71ev2a_c1_elab_chemspace_filtered.sdf', '/opt/xchem-fragalysis-2/maxwin/BulkDock/OUTPUTS/a71ev2a_c1_elab_bulkdock_input_1GFT2LV.sdf', '/opt/xchem-fragalysis-2/maxwin/openbind-hippo/a71ev2a/cycle_01/syndirella/elabs/ASAP-0031281-001_elabs.sdf']

>  <Energy>  (65) 
69.882326

>  <tags>  (65) 
fragmenstein_placed,a71ev2a_c1_elab_bulkdock_input,BulkDock Fragalysis export,openbind_a71ev2a_c1_elabs_filtered

>  <GNINA pK>  (65) 
nan

$$$$
GRVBCAZAUPUKFZ-UHFFFAOYSA-N-P183-P126-P183-601502
     RDKit          3D

 22 24  0  0  0  0  0  0  0  0999 V2000
    8.4764   17.5901   20.4351 C   0  0  0  0  0  0  0  0  0  0  0  0
    9.4898   16.5567   20.2307 C   0  0  0  0  0  0  0  0  0  0  0  0
   10.2640   16.0214   21.1399 N   0  0  0  0  0  0  0  0  0  0  0  0
   11.0701   15.1776   20.4329 C   0  0  0  0  0  0  0  0  0  0  0  0
   12.2356   14.5585   21.0853 C   0  0  0  0  0  0  0  0  0  0  0  0
   12.1035   14.4981   22.5970 C   0  0  0  0  0  0  0  0  0  0  0  0
   11.1435   13.5315   23.0284 N   0  0  0  0  0  0  0  0  0  0  0  0
   10.1428   13.5726   24.1800 C   0  0  0  0  0  0  0  0  0  0  0  0
    9.9858   14.3668   25.0153 O   0  0  0  0  0  0  0  0  0  0  0  0
    9.3852   12.3164   24.1692 C   0  0  0  0  0  0  0  0  0  0  0  0
    9.8011   11.2590   23.4492 N   0  0  0  0  0  0  0  0  0  0  0  0
    9.0468   10.2399   23.8904 N   0  0  0  0  0  0  0  0  0  0  0  0
    9.3405    8.9167   23.3890 C   0  0  0  0  0  0  0  0  0  0  0  0
    8.1067   10.6232   24.8206 C   0  0  0  0  0  0  0  0  0  0  0  0
    7.1505    9.9225   25.5617 C   0  0  0  0  0  0  0  0  0  0  0  0
    6.3136   10.6406   26.4204 C   0  0  0  0  0  0  0  0  0  0  0  0
    6.4307   12.0211   26.5312 C   0  0  0  0  0  0  0  0  0  0  0  0
    5.2837   12.9569   27.7068 Br  0  0  0  0  0  0  0  0  0  0  0  0
    7.3941   12.7200   25.8058 C   0  0  0  0  0  0  0  0  0  0  0  0
    8.2505   12.0003   24.9505 C   0  0  0  0  0  0  0  0  0  0  0  0
   10.6890   15.1734   19.1145 C   0  0  0  0  0  0  0  0  0  0  0  0
    9.6614   16.0570   18.9730 O   0  0  0  0  0  0  0  0  0  0  0  0
  1  2  1  0
  2  3  2  0
  3  4  1  0
  4  5  1  0
  5  6  1  0
  6  7  1  0
  7  8  1  0
  8  9  2  0
  8 10  1  0
 10 11  2  0
 11 12  1  0
 12 13  1  0
 12 14  1  0
 14 15  2  0
 15 16  1  0
 16 17  2  0
 17 18  1  0
 17 19  1  0
 19 20  2  0
  4 21  2  0
 21 22  1  0
 22  2  1  0
 20 10  1  0
 20 14  1  0
M  END
>  <energy_score>  (66) 
-4.497751

>  <fragmenstein_runtime>  (66) 
2.29963

>  <HIPPO Pose ID>  (66) 
503385

>  <fragmenstein_error>  (66) 


>  <alias>  (66) 
GRVBCAZAUPUKFZ-UHFFFAOYSA-N-P183-P126-P183-601502

>  <orig_smiles>  (66) 
Cc1nc(CCNC(=O)c2nn(C)c3ccc(Br)cc23)co1

>  <smiles>  (66) 
Cc1nc(CCNC(=O)c2nn(C)c3ccc(Br)cc23)co1

>  <inchikey>  (66) 
GRVBCAZAUPUKFZ-UHFFFAOYSA-N

>  <HIPPO Compound ID>  (66) 
289827

>  <fragmenstein_mode>  (66) 
expansion

>  <fragmenstein_outcome>  (66) 
acceptable

>  <distance_score>  (66) 
0.529748

>  <subsites>  (66) 
None

>  <scratch_subdir>  (66) 
/opt/xchem-fragalysis-2/maxwin/BulkDock/SCRATCH/601502/GRVBCAZAUPUKFZ-UHFFFAOYSA-N-P183-P126-P183-601502

>  <inspiration_score>  (66) 
None

>  <name>  (66) 
GRVBCAZAUPUKFZ-UHFFFAOYSA-N-P183-P126-P183-601502

>  <ref_mols>  (66) 
A2290a,A3436a

>  <ref_pdb>  (66) 
A0514a

>  <exports>  (66) 
['/opt/xchem-fragalysis-2/maxwin/openbind-hippo/a71ev2a/cycle_01/bulkdock/openbind_a71ev2a_c1_elab_chemspace.sdf', '/opt/xchem-fragalysis-2/maxwin/openbind-hippo/a71ev2a/cycle_01/syndirella/elabs/openbind_a71ev2a_c1_elab_chemspace_filtered.sdf', '/opt/xchem-fragalysis-2/maxwin/BulkDock/OUTPUTS/a71ev2a_c1_elab_bulkdock_input_1GFT2LV.sdf', '/opt/xchem-fragalysis-2/maxwin/openbind-hippo/a71ev2a/cycle_01/syndirella/elabs/ASAP-0031281-001_elabs.sdf']

>  <Energy>  (66) 
70.550052

>  <tags>  (66) 
fragmenstein_placed,a71ev2a_c1_elab_bulkdock_input,BulkDock Fragalysis export,openbind_a71ev2a_c1_elabs_filtered

>  <GNINA pK>  (66) 
nan

$$$$
YIQBRUGGXMDKEY-UHFFFAOYSA-N-P126-P126-P183-601502
     RDKit          3D

 22 24  0  0  0  0  0  0  0  0999 V2000
   12.6518   15.0021   22.0695 C   0  0  0  0  0  0  0  0  0  0  0  0
   11.9093   13.9986   21.2434 C   0  0  2  0  0  0  0  0  0  0  0  0
   11.2873   14.5544   19.9637 C   0  0  0  0  0  0  0  0  0  0  0  0
   10.2349   15.5876   20.0238 C   0  0  0  0  0  0  0  0  0  0  0  0
    9.8724   16.4368   18.9993 C   0  0  0  0  0  0  0  0  0  0  0  0
    9.0096   17.3572   19.4878 O   0  0  0  0  0  0  0  0  0  0  0  0
    8.8531   16.9796   20.7807 C   0  0  0  0  0  0  0  0  0  0  0  0
    9.5213   15.9027   21.1422 N   0  0  0  0  0  0  0  0  0  0  0  0
   11.0697   13.1169   22.0114 N   0  0  0  0  0  0  0  0  0  0  0  0
   10.4630   13.2847   23.4139 C   0  0  0  0  0  0  0  0  0  0  0  0
   10.4818   14.1953   24.1417 O   0  0  0  0  0  0  0  0  0  0  0  0
    9.7576   12.0360   23.7491 C   0  0  0  0  0  0  0  0  0  0  0  0
   10.0473   10.9088   23.0796 N   0  0  0  0  0  0  0  0  0  0  0  0
    9.2806    9.9680   23.6389 N   0  0  0  0  0  0  0  0  0  0  0  0
    9.3570    8.6331   23.1000 C   0  0  0  0  0  0  0  0  0  0  0  0
    8.4605   10.4457   24.6310 C   0  0  0  0  0  0  0  0  0  0  0  0
    7.4993    9.8314   25.4406 C   0  0  0  0  0  0  0  0  0  0  0  0
    6.8048   10.6301   26.3528 C   0  0  0  0  0  0  0  0  0  0  0  0
    7.0718   11.9936   26.4484 C   0  0  0  0  0  0  0  0  0  0  0  0
    6.1188   13.0379   27.7048 Br  0  0  0  0  0  0  0  0  0  0  0  0
    8.0377   12.6025   25.6428 C   0  0  0  0  0  0  0  0  0  0  0  0
    8.7452   11.8084   24.7199 C   0  0  0  0  0  0  0  0  0  0  0  0
  2  1  1  1
  2  3  1  0
  3  4  1  0
  4  5  2  0
  5  6  1  0
  6  7  1  0
  7  8  2  0
  2  9  1  0
  9 10  1  0
 10 11  2  0
 10 12  1  0
 12 13  2  0
 13 14  1  0
 14 15  1  0
 14 16  1  0
 16 17  2  0
 17 18  1  0
 18 19  2  0
 19 20  1  0
 19 21  1  0
 21 22  2  0
  8  4  1  0
 22 12  1  0
 22 16  1  0
M  END
>  <energy_score>  (67) 
-29.856525

>  <fragmenstein_runtime>  (67) 
3.027446

>  <HIPPO Pose ID>  (67) 
503386

>  <fragmenstein_error>  (67) 


>  <alias>  (67) 
YIQBRUGGXMDKEY-UHFFFAOYSA-N-P126-P126-P183-601502

>  <orig_smiles>  (67) 
CC(Cc1cocn1)NC(=O)c1nn(C)c2ccc(Br)cc12

>  <smiles>  (67) 
CC(Cc1cocn1)NC(=O)c1nn(C)c2ccc(Br)cc12

>  <inchikey>  (67) 
YIQBRUGGXMDKEY-UHFFFAOYSA-N

>  <HIPPO Compound ID>  (67) 
289828

>  <fragmenstein_mode>  (67) 
expansion

>  <fragmenstein_outcome>  (67) 
acceptable

>  <distance_score>  (67) 
0.712228

>  <subsites>  (67) 
None

>  <scratch_subdir>  (67) 
/opt/xchem-fragalysis-2/maxwin/BulkDock/SCRATCH/601502/YIQBRUGGXMDKEY-UHFFFAOYSA-N-P126-P126-P183-601502

>  <inspiration_score>  (67) 
None

>  <name>  (67) 
YIQBRUGGXMDKEY-UHFFFAOYSA-N-P126-P126-P183-601502

>  <ref_mols>  (67) 
A2290a,A3436a

>  <ref_pdb>  (67) 
A0514a

>  <exports>  (67) 
['/opt/xchem-fragalysis-2/maxwin/openbind-hippo/a71ev2a/cycle_01/syndirella/elabs/openbind_a71ev2a_c1_elab_chemspace_filtered.sdf', '/opt/xchem-fragalysis-2/maxwin/BulkDock/OUTPUTS/a71ev2a_c1_elab_bulkdock_input_1GFT2LV.sdf', '/opt/xchem-fragalysis-2/maxwin/openbind-hippo/a71ev2a/cycle_01/syndirella/elabs/ASAP-0031281-001_elabs.sdf']

>  <Energy>  (67) 
78.46879

>  <tags>  (67) 
fragmenstein_placed,a71ev2a_c1_elab_bulkdock_input,BulkDock Fragalysis export,openbind_a71ev2a_c1_elabs_filtered

>  <GNINA pK>  (67) 
nan

$$$$
YIQBRUGGXMDKEY-UHFFFAOYSA-N-P183-P126-P183-601502
     RDKit          3D

 22 24  0  0  0  0  0  0  0  0999 V2000
   12.4556   14.8400   23.0075 C   0  0  0  0  0  0  0  0  0  0  0  0
   11.9274   13.8751   21.9927 C   0  0  2  0  0  0  0  0  0  0  0  0
   11.8087   14.5058   20.6272 C   0  0  0  0  0  0  0  0  0  0  0  0
   10.6241   15.3305   20.3704 C   0  0  0  0  0  0  0  0  0  0  0  0
   10.1758   15.7016   19.1334 C   0  0  0  0  0  0  0  0  0  0  0  0
    9.2287   16.6538   19.2901 O   0  0  0  0  0  0  0  0  0  0  0  0
    9.1052   16.7667   20.6393 C   0  0  0  0  0  0  0  0  0  0  0  0
    9.9004   15.9803   21.3304 N   0  0  0  0  0  0  0  0  0  0  0  0
   10.8484   13.1177   22.5205 N   0  0  0  0  0  0  0  0  0  0  0  0
    9.9350   13.3883   23.7205 C   0  0  0  0  0  0  0  0  0  0  0  0
    9.8677   14.3130   24.4255 O   0  0  0  0  0  0  0  0  0  0  0  0
    9.1524   12.1802   23.9441 C   0  0  0  0  0  0  0  0  0  0  0  0
    9.5114   11.0388   23.3315 N   0  0  0  0  0  0  0  0  0  0  0  0
    8.8253   10.0921   23.9725 N   0  0  0  0  0  0  0  0  0  0  0  0
    9.1187    8.7210   23.6383 C   0  0  0  0  0  0  0  0  0  0  0  0
    7.9350   10.5935   24.8950 C   0  0  0  0  0  0  0  0  0  0  0  0
    6.9822    9.9982   25.7265 C   0  0  0  0  0  0  0  0  0  0  0  0
    6.2295   10.8207   26.5686 C   0  0  0  0  0  0  0  0  0  0  0  0
    6.4227   12.1977   26.5726 C   0  0  0  0  0  0  0  0  0  0  0  0
    5.3969   13.2741   27.7403 Br  0  0  0  0  0  0  0  0  0  0  0  0
    7.3621   12.7952   25.7335 C   0  0  0  0  0  0  0  0  0  0  0  0
    8.1170   11.9732   24.8772 C   0  0  0  0  0  0  0  0  0  0  0  0
  2  1  1  1
  2  3  1  0
  3  4  1  0
  4  5  2  0
  5  6  1  0
  6  7  1  0
  7  8  2  0
  2  9  1  0
  9 10  1  0
 10 11  2  0
 10 12  1  0
 12 13  2  0
 13 14  1  0
 14 15  1  0
 14 16  1  0
 16 17  2  0
 17 18  1  0
 18 19  2  0
 19 20  1  0
 19 21  1  0
 21 22  2  0
  8  4  1  0
 22 12  1  0
 22 16  1  0
M  END
>  <energy_score>  (68) 
-26.324425

>  <fragmenstein_runtime>  (68) 
3.410667

>  <HIPPO Pose ID>  (68) 
503387

>  <fragmenstein_error>  (68) 


>  <alias>  (68) 
YIQBRUGGXMDKEY-UHFFFAOYSA-N-P183-P126-P183-601502

>  <orig_smiles>  (68) 
CC(Cc1cocn1)NC(=O)c1nn(C)c2ccc(Br)cc12

>  <smiles>  (68) 
CC(Cc1cocn1)NC(=O)c1nn(C)c2ccc(Br)cc12

>  <inchikey>  (68) 
YIQBRUGGXMDKEY-UHFFFAOYSA-N

>  <HIPPO Compound ID>  (68) 
289828

>  <fragmenstein_mode>  (68) 
expansion

>  <fragmenstein_outcome>  (68) 
acceptable

>  <distance_score>  (68) 
0.586429

>  <subsites>  (68) 
None

>  <scratch_subdir>  (68) 
/opt/xchem-fragalysis-2/maxwin/BulkDock/SCRATCH/601502/YIQBRUGGXMDKEY-UHFFFAOYSA-N-P183-P126-P183-601502

>  <inspiration_score>  (68) 
None

>  <name>  (68) 
YIQBRUGGXMDKEY-UHFFFAOYSA-N-P183-P126-P183-601502

>  <ref_mols>  (68) 
A2290a,A3436a

>  <ref_pdb>  (68) 
A0514a

>  <exports>  (68) 
['/opt/xchem-fragalysis-2/maxwin/openbind-hippo/a71ev2a/cycle_01/bulkdock/openbind_a71ev2a_c1_elab_chemspace.sdf', '/opt/xchem-fragalysis-2/maxwin/openbind-hippo/a71ev2a/cycle_01/syndirella/elabs/openbind_a71ev2a_c1_elab_chemspace_filtered.sdf', '/opt/xchem-fragalysis-2/maxwin/BulkDock/OUTPUTS/a71ev2a_c1_elab_bulkdock_input_1GFT2LV.sdf', '/opt/xchem-fragalysis-2/maxwin/openbind-hippo/a71ev2a/cycle_01/syndirella/elabs/ASAP-0031281-001_elabs.sdf']

>  <Energy>  (68) 
82.00089

>  <tags>  (68) 
fragmenstein_placed,a71ev2a_c1_elab_bulkdock_input,BulkDock Fragalysis export,openbind_a71ev2a_c1_elabs_filtered

>  <GNINA pK>  (68) 
nan

$$$$
YVHPJRWUHCQUON-UHFFFAOYSA-N-P126-P126-P183-601502
     RDKit          3D

 23 25  0  0  0  0  0  0  0  0999 V2000
    8.6064   17.3308   20.7294 C   0  0  0  0  0  0  0  0  0  0  0  0
    9.5699   16.2259   20.5953 C   0  0  0  0  0  0  0  0  0  0  0  0
   10.2318   15.6045   21.5511 N   0  0  0  0  0  0  0  0  0  0  0  0
   11.1569   14.8638   20.8853 C   0  0  0  0  0  0  0  0  0  0  0  0
   12.3455   14.2550   21.5139 C   0  0  0  0  0  0  0  0  0  0  0  0
   12.2556   14.1355   23.0086 C   0  0  0  0  0  0  0  0  0  0  0  0
   11.2608   13.2163   23.4340 N   0  0  0  0  0  0  0  0  0  0  0  0
   10.2519   13.3047   24.5734 C   0  0  0  0  0  0  0  0  0  0  0  0
   10.1174   14.1105   25.4016 O   0  0  0  0  0  0  0  0  0  0  0  0
    9.4433   12.0861   24.5195 C   0  0  0  0  0  0  0  0  0  0  0  0
    9.8031   11.0589   23.7254 N   0  0  0  0  0  0  0  0  0  0  0  0
    8.9696   10.0713   24.0763 N   0  0  0  0  0  0  0  0  0  0  0  0
    9.2057    8.7503   23.5507 C   0  0  0  0  0  0  0  0  0  0  0  0
    8.0340   10.4485   25.0093 C   0  0  0  0  0  0  0  0  0  0  0  0
    7.0043    9.7613   25.6519 C   0  0  0  0  0  0  0  0  0  0  0  0
    6.2216   10.4594   26.5741 C   0  0  0  0  0  0  0  0  0  0  0  0
    6.4626   11.8038   26.8374 C   0  0  0  0  0  0  0  0  0  0  0  0
    5.3758   12.7122   28.0904 Br  0  0  0  0  0  0  0  0  0  0  0  0
    7.5008   12.4856   26.2066 C   0  0  0  0  0  0  0  0  0  0  0  0
    8.2970   11.7850   25.2836 C   0  0  0  0  0  0  0  0  0  0  0  0
   10.9244   14.9610   19.5431 C   0  0  0  0  0  0  0  0  0  0  0  0
   11.7078   14.4801   18.4173 C   0  0  0  0  0  0  0  0  0  0  0  0
    9.8896   15.8194   19.3322 O   0  0  0  0  0  0  0  0  0  0  0  0
  1  2  1  0
  2  3  2  0
  3  4  1  0
  4  5  1  0
  5  6  1  0
  6  7  1  0
  7  8  1  0
  8  9  2  0
  8 10  1  0
 10 11  2  0
 11 12  1  0
 12 13  1  0
 12 14  1  0
 14 15  2  0
 15 16  1  0
 16 17  2  0
 17 18  1  0
 17 19  1  0
 19 20  2  0
  4 21  2  0
 21 22  1  0
 21 23  1  0
 23  2  1  0
 20 10  1  0
 20 14  1  0
M  END
>  <energy_score>  (69) 
-1.797705

>  <fragmenstein_runtime>  (69) 
3.064767

>  <HIPPO Pose ID>  (69) 
503388

>  <fragmenstein_error>  (69) 


>  <alias>  (69) 
YVHPJRWUHCQUON-UHFFFAOYSA-N-P126-P126-P183-601502

>  <orig_smiles>  (69) 
Cc1nc(CCNC(=O)c2nn(C)c3ccc(Br)cc23)c(C)o1

>  <smiles>  (69) 
Cc1nc(CCNC(=O)c2nn(C)c3ccc(Br)cc23)c(C)o1

>  <inchikey>  (69) 
YVHPJRWUHCQUON-UHFFFAOYSA-N

>  <HIPPO Compound ID>  (69) 
289829

>  <fragmenstein_mode>  (69) 
expansion

>  <fragmenstein_outcome>  (69) 
acceptable

>  <distance_score>  (69) 
0.753264

>  <subsites>  (69) 
None

>  <scratch_subdir>  (69) 
/opt/xchem-fragalysis-2/maxwin/BulkDock/SCRATCH/601502/YVHPJRWUHCQUON-UHFFFAOYSA-N-P126-P126-P183-601502

>  <inspiration_score>  (69) 
None

>  <name>  (69) 
YVHPJRWUHCQUON-UHFFFAOYSA-N-P126-P126-P183-601502

>  <ref_mols>  (69) 
A2290a,A3436a

>  <ref_pdb>  (69) 
A0514a

>  <exports>  (69) 
['/opt/xchem-fragalysis-2/maxwin/openbind-hippo/a71ev2a/cycle_01/syndirella/elabs/openbind_a71ev2a_c1_elab_chemspace_filtered.sdf', '/opt/xchem-fragalysis-2/maxwin/BulkDock/OUTPUTS/a71ev2a_c1_elab_bulkdock_input_1GFT2LV.sdf', '/opt/xchem-fragalysis-2/maxwin/openbind-hippo/a71ev2a/cycle_01/syndirella/elabs/ASAP-0031281-001_elabs.sdf']

>  <Energy>  (69) 
73.422842

>  <tags>  (69) 
fragmenstein_placed,a71ev2a_c1_elab_bulkdock_input,BulkDock Fragalysis export,openbind_a71ev2a_c1_elabs_filtered

>  <GNINA pK>  (69) 
nan

$$$$
YVHPJRWUHCQUON-UHFFFAOYSA-N-P183-P126-P183-601502
     RDKit          3D

 23 25  0  0  0  0  0  0  0  0999 V2000
    8.4048   17.5271   20.6636 C   0  0  0  0  0  0  0  0  0  0  0  0
    9.4443   16.5197   20.5061 C   0  0  0  0  0  0  0  0  0  0  0  0
   10.1504   15.9518   21.4545 N   0  0  0  0  0  0  0  0  0  0  0  0
   11.0571   15.2033   20.7789 C   0  0  0  0  0  0  0  0  0  0  0  0
   12.2269   14.5961   21.4341 C   0  0  0  0  0  0  0  0  0  0  0  0
   12.0873   14.4831   22.9339 C   0  0  0  0  0  0  0  0  0  0  0  0
   11.1030   13.5224   23.3024 N   0  0  0  0  0  0  0  0  0  0  0  0
   10.0173   13.5761   24.3695 C   0  0  0  0  0  0  0  0  0  0  0  0
    9.7931   14.3813   25.1774 O   0  0  0  0  0  0  0  0  0  0  0  0
    9.2781   12.3140   24.3043 C   0  0  0  0  0  0  0  0  0  0  0  0
    9.7270   11.2839   23.5626 N   0  0  0  0  0  0  0  0  0  0  0  0
    8.9810   10.2417   23.9616 N   0  0  0  0  0  0  0  0  0  0  0  0
    9.3082    8.9367   23.4324 C   0  0  0  0  0  0  0  0  0  0  0  0
    8.0230   10.5877   24.8888 C   0  0  0  0  0  0  0  0  0  0  0  0
    7.0693    9.8565   25.5999 C   0  0  0  0  0  0  0  0  0  0  0  0
    6.2153   10.5376   26.4719 C   0  0  0  0  0  0  0  0  0  0  0  0
    6.3080   11.9158   26.6203 C   0  0  0  0  0  0  0  0  0  0  0  0
    5.1362   12.8018   27.8098 Br  0  0  0  0  0  0  0  0  0  0  0  0
    7.2646   12.6475   25.9212 C   0  0  0  0  0  0  0  0  0  0  0  0
    8.1388   11.9624   25.0562 C   0  0  0  0  0  0  0  0  0  0  0  0
   10.7845   15.2674   19.4398 C   0  0  0  0  0  0  0  0  0  0  0  0
   11.4748   14.7474   18.2769 C   0  0  0  0  0  0  0  0  0  0  0  0
    9.7349   16.1058   19.2427 O   0  0  0  0  0  0  0  0  0  0  0  0
  1  2  1  0
  2  3  2  0
  3  4  1  0
  4  5  1  0
  5  6  1  0
  6  7  1  0
  7  8  1  0
  8  9  2  0
  8 10  1  0
 10 11  2  0
 11 12  1  0
 12 13  1  0
 12 14  1  0
 14 15  2  0
 15 16  1  0
 16 17  2  0
 17 18  1  0
 17 19  1  0
 19 20  2  0
  4 21  2  0
 21 22  1  0
 21 23  1  0
 23  2  1  0
 20 10  1  0
 20 14  1  0
M  END
>  <energy_score>  (70) 
-2.570981

>  <fragmenstein_runtime>  (70) 
3.194286

>  <HIPPO Pose ID>  (70) 
503389

>  <fragmenstein_error>  (70) 


>  <alias>  (70) 
YVHPJRWUHCQUON-UHFFFAOYSA-N-P183-P126-P183-601502

>  <orig_smiles>  (70) 
Cc1nc(CCNC(=O)c2nn(C)c3ccc(Br)cc23)c(C)o1

>  <smiles>  (70) 
Cc1nc(CCNC(=O)c2nn(C)c3ccc(Br)cc23)c(C)o1

>  <inchikey>  (70) 
YVHPJRWUHCQUON-UHFFFAOYSA-N

>  <HIPPO Compound ID>  (70) 
289829

>  <fragmenstein_mode>  (70) 
expansion

>  <fragmenstein_outcome>  (70) 
acceptable

>  <distance_score>  (70) 
0.67174

>  <subsites>  (70) 
None

>  <scratch_subdir>  (70) 
/opt/xchem-fragalysis-2/maxwin/BulkDock/SCRATCH/601502/YVHPJRWUHCQUON-UHFFFAOYSA-N-P183-P126-P183-601502

>  <inspiration_score>  (70) 
None

>  <name>  (70) 
YVHPJRWUHCQUON-UHFFFAOYSA-N-P183-P126-P183-601502

>  <ref_mols>  (70) 
A2290a,A3436a

>  <ref_pdb>  (70) 
A0514a

>  <exports>  (70) 
['/opt/xchem-fragalysis-2/maxwin/openbind-hippo/a71ev2a/cycle_01/bulkdock/openbind_a71ev2a_c1_elab_chemspace.sdf', '/opt/xchem-fragalysis-2/maxwin/openbind-hippo/a71ev2a/cycle_01/syndirella/elabs/openbind_a71ev2a_c1_elab_chemspace_filtered.sdf', '/opt/xchem-fragalysis-2/maxwin/BulkDock/OUTPUTS/a71ev2a_c1_elab_bulkdock_input_1GFT2LV.sdf', '/opt/xchem-fragalysis-2/maxwin/openbind-hippo/a71ev2a/cycle_01/syndirella/elabs/ASAP-0031281-001_elabs.sdf']

>  <Energy>  (70) 
72.649566

>  <tags>  (70) 
fragmenstein_placed,a71ev2a_c1_elab_bulkdock_input,BulkDock Fragalysis export,openbind_a71ev2a_c1_elabs_filtered

>  <GNINA pK>  (70) 
nan

$$$$
MRIKHPOGYPLZKJ-UHFFFAOYSA-N-P126-P126-P183-601502
     RDKit          3D

 23 25  0  0  0  0  0  0  0  0999 V2000
    8.6051   17.3225   20.7352 C   0  0  0  0  0  0  0  0  0  0  0  0
    9.5706   16.2196   20.5968 C   0  0  0  0  0  0  0  0  0  0  0  0
   10.2419   15.6024   21.5492 N   0  0  0  0  0  0  0  0  0  0  0  0
   11.1674   14.8682   20.8777 C   0  0  0  0  0  0  0  0  0  0  0  0
   12.3705   14.2762   21.4933 C   0  0  0  0  0  0  0  0  0  0  0  0
   12.3028   14.1661   22.9890 C   0  0  0  0  0  0  0  0  0  0  0  0
   11.3508   13.2118   23.4320 N   0  0  0  0  0  0  0  0  0  0  0  0
   10.3365   13.2775   24.5680 C   0  0  0  0  0  0  0  0  0  0  0  0
   10.1633   14.0932   25.3789 O   0  0  0  0  0  0  0  0  0  0  0  0
    9.5445   12.0497   24.4918 C   0  0  0  0  0  0  0  0  0  0  0  0
    9.9135   11.0512   23.6672 N   0  0  0  0  0  0  0  0  0  0  0  0
    9.0672   10.0543   23.9550 N   0  0  0  0  0  0  0  0  0  0  0  0
    9.2355    8.8086   23.2472 C   0  0  0  0  0  0  0  0  0  0  0  0
    8.1456   10.3865   24.9193 C   0  0  0  0  0  0  0  0  0  0  0  0
    7.1203    9.6766   25.5441 C   0  0  0  0  0  0  0  0  0  0  0  0
    6.3327   10.3418   26.4868 C   0  0  0  0  0  0  0  0  0  0  0  0
    6.5678   11.6745   26.7891 C   0  0  0  0  0  0  0  0  0  0  0  0
    5.8035   12.2801   27.7080 F   0  0  0  0  0  0  0  0  0  0  0  0
    7.5978   12.3829   26.1845 C   0  0  0  0  0  0  0  0  0  0  0  0
    8.4006   11.7163   25.2427 C   0  0  0  0  0  0  0  0  0  0  0  0
   10.9245   14.9603   19.5374 C   0  0  0  0  0  0  0  0  0  0  0  0
   11.7064   14.4816   18.4101 C   0  0  0  0  0  0  0  0  0  0  0  0
    9.8844   15.8130   19.3316 O   0  0  0  0  0  0  0  0  0  0  0  0
  1  2  1  0
  2  3  2  0
  3  4  1  0
  4  5  1  0
  5  6  1  0
  6  7  1  0
  7  8  1  0
  8  9  2  0
  8 10  1  0
 10 11  2  0
 11 12  1  0
 12 13  1  0
 12 14  1  0
 14 15  2  0
 15 16  1  0
 16 17  2  0
 17 18  1  0
 17 19  1  0
 19 20  2  0
  4 21  2  0
 21 22  1  0
 21 23  1  0
 23  2  1  0
 20 10  1  0
 20 14  1  0
M  END
>  <energy_score>  (71) 
-3.55348

>  <fragmenstein_runtime>  (71) 
4.042867

>  <HIPPO Pose ID>  (71) 
503390

>  <fragmenstein_error>  (71) 


>  <alias>  (71) 
MRIKHPOGYPLZKJ-UHFFFAOYSA-N-P126-P126-P183-601502

>  <orig_smiles>  (71) 
Cc1nc(CCNC(=O)c2nn(C)c3ccc(F)cc23)c(C)o1

>  <smiles>  (71) 
Cc1nc(CCNC(=O)c2nn(C)c3ccc(F)cc23)c(C)o1

>  <inchikey>  (71) 
MRIKHPOGYPLZKJ-UHFFFAOYSA-N

>  <HIPPO Compound ID>  (71) 
289830

>  <fragmenstein_mode>  (71) 
expansion

>  <fragmenstein_outcome>  (71) 
acceptable

>  <distance_score>  (71) 
0.714784

>  <subsites>  (71) 
None

>  <scratch_subdir>  (71) 
/opt/xchem-fragalysis-2/maxwin/BulkDock/SCRATCH/601502/MRIKHPOGYPLZKJ-UHFFFAOYSA-N-P126-P126-P183-601502

>  <inspiration_score>  (71) 
None

>  <name>  (71) 
MRIKHPOGYPLZKJ-UHFFFAOYSA-N-P126-P126-P183-601502

>  <ref_mols>  (71) 
A2290a,A3436a

>  <ref_pdb>  (71) 
A0514a

>  <exports>  (71) 
['/opt/xchem-fragalysis-2/maxwin/openbind-hippo/a71ev2a/cycle_01/syndirella/elabs/openbind_a71ev2a_c1_elab_chemspace_filtered.sdf', '/opt/xchem-fragalysis-2/maxwin/BulkDock/OUTPUTS/a71ev2a_c1_elab_bulkdock_input_1GFT2LV.sdf', '/opt/xchem-fragalysis-2/maxwin/openbind-hippo/a71ev2a/cycle_01/syndirella/elabs/ASAP-0031281-001_elabs.sdf']

>  <Energy>  (71) 
71.064747

>  <tags>  (71) 
fragmenstein_placed,a71ev2a_c1_elab_bulkdock_input,BulkDock Fragalysis export,openbind_a71ev2a_c1_elabs_filtered

>  <GNINA pK>  (71) 
nan

$$$$
MRIKHPOGYPLZKJ-UHFFFAOYSA-N-P183-P126-P183-601502
     RDKit          3D

 23 25  0  0  0  0  0  0  0  0999 V2000
    8.4046   17.5212   20.6715 C   0  0  0  0  0  0  0  0  0  0  0  0
    9.4422   16.5119   20.5119 C   0  0  0  0  0  0  0  0  0  0  0  0
   10.1453   15.9376   21.4589 N   0  0  0  0  0  0  0  0  0  0  0  0
   11.0553   15.1952   20.7812 C   0  0  0  0  0  0  0  0  0  0  0  0
   12.2238   14.5859   21.4364 C   0  0  0  0  0  0  0  0  0  0  0  0
   12.0841   14.4717   22.9361 C   0  0  0  0  0  0  0  0  0  0  0  0
   11.0926   13.5186   23.3074 N   0  0  0  0  0  0  0  0  0  0  0  0
   10.0135   13.5791   24.3805 C   0  0  0  0  0  0  0  0  0  0  0  0
    9.8011   14.3839   25.1918 O   0  0  0  0  0  0  0  0  0  0  0  0
    9.2596   12.3246   24.3190 C   0  0  0  0  0  0  0  0  0  0  0  0
    9.6925   11.2833   23.5814 N   0  0  0  0  0  0  0  0  0  0  0  0
    8.9416   10.2529   24.0030 N   0  0  0  0  0  0  0  0  0  0  0  0
    9.2760    8.9344   23.5168 C   0  0  0  0  0  0  0  0  0  0  0  0
    7.9848   10.6169   24.9235 C   0  0  0  0  0  0  0  0  0  0  0  0
    7.0199    9.9021   25.6399 C   0  0  0  0  0  0  0  0  0  0  0  0
    6.1810   10.6034   26.5092 C   0  0  0  0  0  0  0  0  0  0  0  0
    6.2989   11.9773   26.6460 C   0  0  0  0  0  0  0  0  0  0  0  0
    5.4914   12.6194   27.5006 F   0  0  0  0  0  0  0  0  0  0  0  0
    7.2573   12.6939   25.9413 C   0  0  0  0  0  0  0  0  0  0  0  0
    8.1182   11.9924   25.0778 C   0  0  0  0  0  0  0  0  0  0  0  0
   10.7854   15.2657   19.4420 C   0  0  0  0  0  0  0  0  0  0  0  0
   11.4779   14.7529   18.2773 C   0  0  0  0  0  0  0  0  0  0  0  0
    9.7351   16.1035   19.2471 O   0  0  0  0  0  0  0  0  0  0  0  0
  1  2  1  0
  2  3  2  0
  3  4  1  0
  4  5  1  0
  5  6  1  0
  6  7  1  0
  7  8  1  0
  8  9  2  0
  8 10  1  0
 10 11  2  0
 11 12  1  0
 12 13  1  0
 12 14  1  0
 14 15  2  0
 15 16  1  0
 16 17  2  0
 17 18  1  0
 17 19  1  0
 19 20  2  0
  4 21  2  0
 21 22  1  0
 21 23  1  0
 23  2  1  0
 20 10  1  0
 20 14  1  0
M  END
>  <energy_score>  (72) 
-4.695939

>  <fragmenstein_runtime>  (72) 
4.62779

>  <HIPPO Pose ID>  (72) 
503391

>  <fragmenstein_error>  (72) 


>  <alias>  (72) 
MRIKHPOGYPLZKJ-UHFFFAOYSA-N-P183-P126-P183-601502

>  <orig_smiles>  (72) 
Cc1nc(CCNC(=O)c2nn(C)c3ccc(F)cc23)c(C)o1

>  <smiles>  (72) 
Cc1nc(CCNC(=O)c2nn(C)c3ccc(F)cc23)c(C)o1

>  <inchikey>  (72) 
MRIKHPOGYPLZKJ-UHFFFAOYSA-N

>  <HIPPO Compound ID>  (72) 
289830

>  <fragmenstein_mode>  (72) 
expansion

>  <fragmenstein_outcome>  (72) 
acceptable

>  <distance_score>  (72) 
0.689301

>  <subsites>  (72) 
None

>  <scratch_subdir>  (72) 
/opt/xchem-fragalysis-2/maxwin/BulkDock/SCRATCH/601502/MRIKHPOGYPLZKJ-UHFFFAOYSA-N-P183-P126-P183-601502

>  <inspiration_score>  (72) 
None

>  <name>  (72) 
MRIKHPOGYPLZKJ-UHFFFAOYSA-N-P183-P126-P183-601502

>  <ref_mols>  (72) 
A2290a,A3436a

>  <ref_pdb>  (72) 
A0514a

>  <exports>  (72) 
['/opt/xchem-fragalysis-2/maxwin/openbind-hippo/a71ev2a/cycle_01/bulkdock/openbind_a71ev2a_c1_elab_chemspace.sdf', '/opt/xchem-fragalysis-2/maxwin/openbind-hippo/a71ev2a/cycle_01/syndirella/elabs/openbind_a71ev2a_c1_elab_chemspace_filtered.sdf', '/opt/xchem-fragalysis-2/maxwin/BulkDock/OUTPUTS/a71ev2a_c1_elab_bulkdock_input_1GFT2LV.sdf', '/opt/xchem-fragalysis-2/maxwin/openbind-hippo/a71ev2a/cycle_01/syndirella/elabs/ASAP-0031281-001_elabs.sdf']

>  <Energy>  (72) 
69.922288

>  <tags>  (72) 
fragmenstein_placed,a71ev2a_c1_elab_bulkdock_input,BulkDock Fragalysis export,openbind_a71ev2a_c1_elabs_filtered

>  <GNINA pK>  (72) 
nan

$$$$
QZNFHAMVIOJLEH-UHFFFAOYSA-N-P126-P126-P183-601502
     RDKit          3D

 24 26  0  0  0  0  0  0  0  0999 V2000
   11.6858   14.5192   18.4373 C   0  0  0  0  0  0  0  0  0  0  0  0
   10.8916   14.9569   19.5756 C   0  0  0  0  0  0  0  0  0  0  0  0
    9.7820   15.7220   19.3905 O   0  0  0  0  0  0  0  0  0  0  0  0
    9.4131   16.0342   20.6621 C   0  0  0  0  0  0  0  0  0  0  0  0
   10.1456   15.4805   21.6039 N   0  0  0  0  0  0  0  0  0  0  0  0
   11.1389   14.8538   20.9145 C   0  0  0  0  0  0  0  0  0  0  0  0
   12.3658   14.2941   21.5138 C   0  0  0  0  0  0  0  0  0  0  0  0
   12.3135   14.1638   23.0081 C   0  0  0  0  0  0  0  0  0  0  0  0
   11.3689   13.2020   23.4483 N   0  0  0  0  0  0  0  0  0  0  0  0
   10.3380   13.2665   24.5686 C   0  0  0  0  0  0  0  0  0  0  0  0
   10.1422   14.0887   25.3673 O   0  0  0  0  0  0  0  0  0  0  0  0
    9.5541   12.0351   24.4887 C   0  0  0  0  0  0  0  0  0  0  0  0
    9.9417   11.0321   23.6796 N   0  0  0  0  0  0  0  0  0  0  0  0
    9.0880   10.0374   23.9509 N   0  0  0  0  0  0  0  0  0  0  0  0
    9.2540    8.7962   23.2334 C   0  0  0  0  0  0  0  0  0  0  0  0
    8.1508   10.3737   24.9002 C   0  0  0  0  0  0  0  0  0  0  0  0
    7.1191    9.6614   25.5098 C   0  0  0  0  0  0  0  0  0  0  0  0
    6.2873   10.3299   26.4110 C   0  0  0  0  0  0  0  0  0  0  0  0
    6.5002   11.6797   26.6960 C   0  0  0  0  0  0  0  0  0  0  0  0
    5.6121   12.3568   27.6398 N   0  0  0  0  0  0  0  0  0  0  0  0
    6.0776   13.3106   28.2791 O   0  0  0  0  0  0  0  0  0  0  0  0
    4.4631   11.9085   27.7711 O   0  0  0  0  0  0  0  0  0  0  0  0
    7.5612   12.3879   26.1234 C   0  0  0  0  0  0  0  0  0  0  0  0
    8.3925   11.7074   25.2149 C   0  0  0  0  0  0  0  0  0  0  0  0
  1  2  1  0
  2  3  1  0
  3  4  1  0
  4  5  2  0
  5  6  1  0
  6  7  1  0
  7  8  1  0
  8  9  1  0
  9 10  1  0
 10 11  2  0
 10 12  1  0
 12 13  2  0
 13 14  1  0
 14 15  1  0
 14 16  1  0
 16 17  2  0
 17 18  1  0
 18 19  2  0
 19 20  1  0
 20 21  2  0
 20 22  1  0
 19 23  1  0
 23 24  2  0
  6  2  2  0
 24 12  1  0
 24 16  1  0
M  CHG  2  20   1  22  -1
M  END
>  <energy_score>  (73) 
-17.033888

>  <fragmenstein_runtime>  (73) 
3.617624

>  <HIPPO Pose ID>  (73) 
503392

>  <fragmenstein_error>  (73) 


>  <alias>  (73) 
QZNFHAMVIOJLEH-UHFFFAOYSA-N-P126-P126-P183-601502

>  <orig_smiles>  (73) 
Cc1ocnc1CCNC(=O)c1nn(C)c2ccc([N+](=O)[O-])cc12

>  <smiles>  (73) 
Cc1ocnc1CCNC(=O)c1nn(C)c2ccc([N+](=O)[O-])cc12

>  <inchikey>  (73) 
QZNFHAMVIOJLEH-UHFFFAOYSA-N

>  <HIPPO Compound ID>  (73) 
289831

>  <fragmenstein_mode>  (73) 
expansion

>  <fragmenstein_outcome>  (73) 
acceptable

>  <distance_score>  (73) 
0.735842

>  <subsites>  (73) 
None

>  <scratch_subdir>  (73) 
/opt/xchem-fragalysis-2/maxwin/BulkDock/SCRATCH/601502/QZNFHAMVIOJLEH-UHFFFAOYSA-N-P126-P126-P183-601502

>  <inspiration_score>  (73) 
None

>  <name>  (73) 
QZNFHAMVIOJLEH-UHFFFAOYSA-N-P126-P126-P183-601502

>  <ref_mols>  (73) 
A2290a,A3436a

>  <ref_pdb>  (73) 
A0514a

>  <exports>  (73) 
['/opt/xchem-fragalysis-2/maxwin/openbind-hippo/a71ev2a/cycle_01/syndirella/elabs/openbind_a71ev2a_c1_elab_chemspace_filtered.sdf', '/opt/xchem-fragalysis-2/maxwin/BulkDock/OUTPUTS/a71ev2a_c1_elab_bulkdock_input_1GFT2LV.sdf', '/opt/xchem-fragalysis-2/maxwin/openbind-hippo/a71ev2a/cycle_01/syndirella/elabs/ASAP-0031281-001_elabs.sdf']

>  <Energy>  (73) 
104.144503

>  <tags>  (73) 
fragmenstein_placed,a71ev2a_c1_elab_bulkdock_input,BulkDock Fragalysis export,openbind_a71ev2a_c1_elabs_filtered

>  <GNINA pK>  (73) 
nan

$$$$
QZNFHAMVIOJLEH-UHFFFAOYSA-N-P183-P126-P183-601502
     RDKit          3D

 24 26  0  0  0  0  0  0  0  0999 V2000
   11.3876   14.8373   18.3323 C   0  0  0  0  0  0  0  0  0  0  0  0
   10.6476   15.3303   19.4850 C   0  0  0  0  0  0  0  0  0  0  0  0
    9.5384   16.0931   19.2886 O   0  0  0  0  0  0  0  0  0  0  0  0
    9.1698   16.4387   20.5543 C   0  0  0  0  0  0  0  0  0  0  0  0
    9.9167   15.9232   21.5036 N   0  0  0  0  0  0  0  0  0  0  0  0
   10.9065   15.2693   20.8273 C   0  0  0  0  0  0  0  0  0  0  0  0
   12.1208   14.7079   21.4579 C   0  0  0  0  0  0  0  0  0  0  0  0
   12.0268   14.5534   22.9540 C   0  0  0  0  0  0  0  0  0  0  0  0
   11.0667   13.5705   23.3244 N   0  0  0  0  0  0  0  0  0  0  0  0
    9.9908   13.5942   24.4007 C   0  0  0  0  0  0  0  0  0  0  0  0
    9.7573   14.3887   25.2160 O   0  0  0  0  0  0  0  0  0  0  0  0
    9.2681   12.3241   24.3294 C   0  0  0  0  0  0  0  0  0  0  0  0
    9.7286   11.2987   23.5894 N   0  0  0  0  0  0  0  0  0  0  0  0
    8.9792   10.2533   23.9734 N   0  0  0  0  0  0  0  0  0  0  0  0
    9.3060    8.9537   23.4309 C   0  0  0  0  0  0  0  0  0  0  0  0
    8.0146   10.5914   24.8977 C   0  0  0  0  0  0  0  0  0  0  0  0
    7.0580    9.8504   25.5956 C   0  0  0  0  0  0  0  0  0  0  0  0
    6.1780   10.5222   26.4478 C   0  0  0  0  0  0  0  0  0  0  0  0
    6.2578   11.9080   26.5894 C   0  0  0  0  0  0  0  0  0  0  0  0
    5.3171   12.5899   27.4782 N   0  0  0  0  0  0  0  0  0  0  0  0
    5.6748   13.6675   27.9732 O   0  0  0  0  0  0  0  0  0  0  0  0
    4.2389   12.0248   27.7172 O   0  0  0  0  0  0  0  0  0  0  0  0
    7.2330   12.6519   25.9185 C   0  0  0  0  0  0  0  0  0  0  0  0
    8.1224   11.9666   25.0689 C   0  0  0  0  0  0  0  0  0  0  0  0
  1  2  1  0
  2  3  1  0
  3  4  1  0
  4  5  2  0
  5  6  1  0
  6  7  1  0
  7  8  1  0
  8  9  1  0
  9 10  1  0
 10 11  2  0
 10 12  1  0
 12 13  2  0
 13 14  1  0
 14 15  1  0
 14 16  1  0
 16 17  2  0
 17 18  1  0
 18 19  2  0
 19 20  1  0
 20 21  2  0
 20 22  1  0
 19 23  1  0
 23 24  2  0
  6  2  2  0
 24 12  1  0
 24 16  1  0
M  CHG  2  20   1  22  -1
M  END
>  <energy_score>  (74) 
-18.251645

>  <fragmenstein_runtime>  (74) 
3.699681

>  <HIPPO Pose ID>  (74) 
503393

>  <fragmenstein_error>  (74) 


>  <alias>  (74) 
QZNFHAMVIOJLEH-UHFFFAOYSA-N-P183-P126-P183-601502

>  <orig_smiles>  (74) 
Cc1ocnc1CCNC(=O)c1nn(C)c2ccc([N+](=O)[O-])cc12

>  <smiles>  (74) 
Cc1ocnc1CCNC(=O)c1nn(C)c2ccc([N+](=O)[O-])cc12

>  <inchikey>  (74) 
QZNFHAMVIOJLEH-UHFFFAOYSA-N

>  <HIPPO Compound ID>  (74) 
289831

>  <fragmenstein_mode>  (74) 
expansion

>  <fragmenstein_outcome>  (74) 
acceptable

>  <distance_score>  (74) 
0.70458

>  <subsites>  (74) 
None

>  <scratch_subdir>  (74) 
/opt/xchem-fragalysis-2/maxwin/BulkDock/SCRATCH/601502/QZNFHAMVIOJLEH-UHFFFAOYSA-N-P183-P126-P183-601502

>  <inspiration_score>  (74) 
None

>  <name>  (74) 
QZNFHAMVIOJLEH-UHFFFAOYSA-N-P183-P126-P183-601502

>  <ref_mols>  (74) 
A2290a,A3436a

>  <ref_pdb>  (74) 
A0514a

>  <exports>  (74) 
['/opt/xchem-fragalysis-2/maxwin/openbind-hippo/a71ev2a/cycle_01/bulkdock/openbind_a71ev2a_c1_elab_chemspace.sdf', '/opt/xchem-fragalysis-2/maxwin/openbind-hippo/a71ev2a/cycle_01/syndirella/elabs/openbind_a71ev2a_c1_elab_chemspace_filtered.sdf', '/opt/xchem-fragalysis-2/maxwin/BulkDock/OUTPUTS/a71ev2a_c1_elab_bulkdock_input_1GFT2LV.sdf', '/opt/xchem-fragalysis-2/maxwin/openbind-hippo/a71ev2a/cycle_01/syndirella/elabs/ASAP-0031281-001_elabs.sdf']

>  <Energy>  (74) 
102.926746

>  <tags>  (74) 
fragmenstein_placed,a71ev2a_c1_elab_bulkdock_input,BulkDock Fragalysis export,openbind_a71ev2a_c1_elabs_filtered

>  <GNINA pK>  (74) 
nan

$$$$
NQAJYEHWEJRFCO-UHFFFAOYSA-N-P126-P126-P183-601502
     RDKit          3D

 24 26  0  0  0  0  0  0  0  0999 V2000
   12.7994   14.3344   21.8273 C   0  0  0  0  0  0  0  0  0  0  0  0
   11.3194   14.6078   21.7940 C   0  0  1  0  0  0  0  0  0  0  0  0
   10.8282   14.6920   20.3458 C   0  0  0  0  0  0  0  0  0  0  0  0
    9.9514   15.8486   20.0631 C   0  0  0  0  0  0  0  0  0  0  0  0
    9.8247   16.5748   18.9024 C   0  0  0  0  0  0  0  0  0  0  0  0
    9.0036   17.6287   19.1420 O   0  0  0  0  0  0  0  0  0  0  0  0
    8.6843   17.4890   20.4563 C   0  0  0  0  0  0  0  0  0  0  0  0
    9.1570   16.4031   21.0264 N   0  0  0  0  0  0  0  0  0  0  0  0
   10.6593   13.5254   22.4858 N   0  0  0  0  0  0  0  0  0  0  0  0
   10.2094   13.4043   23.9420 C   0  0  0  0  0  0  0  0  0  0  0  0
   10.2270   14.1847   24.8049 O   0  0  0  0  0  0  0  0  0  0  0  0
    9.6029   12.0831   24.1106 C   0  0  0  0  0  0  0  0  0  0  0  0
    9.9619   11.0473   23.3333 N   0  0  0  0  0  0  0  0  0  0  0  0
    9.2248   10.0228   23.7857 N   0  0  0  0  0  0  0  0  0  0  0  0
    9.3893    8.7375   23.1517 C   0  0  0  0  0  0  0  0  0  0  0  0
    8.3325   10.3823   24.7679 C   0  0  0  0  0  0  0  0  0  0  0  0
    7.3545    9.6701   25.4650 C   0  0  0  0  0  0  0  0  0  0  0  0
    6.5522   10.3618   26.3753 C   0  0  0  0  0  0  0  0  0  0  0  0
    6.7472   11.7289   26.5844 C   0  0  0  0  0  0  0  0  0  0  0  0
    5.8892   12.4308   27.5360 N   0  0  0  0  0  0  0  0  0  0  0  0
    4.7385   11.9977   27.6966 O   0  0  0  0  0  0  0  0  0  0  0  0
    6.3820   13.3889   28.1471 O   0  0  0  0  0  0  0  0  0  0  0  0
    7.7526   12.4385   25.9164 C   0  0  0  0  0  0  0  0  0  0  0  0
    8.5505   11.7381   24.9915 C   0  0  0  0  0  0  0  0  0  0  0  0
  2  1  1  6
  2  3  1  0
  3  4  1  0
  4  5  2  0
  5  6  1  0
  6  7  1  0
  7  8  2  0
  2  9  1  0
  9 10  1  0
 10 11  2  0
 10 12  1  0
 12 13  2  0
 13 14  1  0
 14 15  1  0
 14 16  1  0
 16 17  2  0
 17 18  1  0
 18 19  2  0
 19 20  1  0
 20 21  2  0
 20 22  1  0
 19 23  1  0
 23 24  2  0
  8  4  1  0
 24 12  1  0
 24 16  1  0
M  CHG  2  20   1  22  -1
M  END
>  <energy_score>  (75) 
-19.080406

>  <fragmenstein_runtime>  (75) 
3.544375

>  <HIPPO Pose ID>  (75) 
503394

>  <fragmenstein_error>  (75) 


>  <alias>  (75) 
NQAJYEHWEJRFCO-UHFFFAOYSA-N-P126-P126-P183-601502

>  <orig_smiles>  (75) 
CC(Cc1cocn1)NC(=O)c1nn(C)c2ccc([N+](=O)[O-])cc12

>  <smiles>  (75) 
CC(Cc1cocn1)NC(=O)c1nn(C)c2ccc([N+](=O)[O-])cc12

>  <inchikey>  (75) 
NQAJYEHWEJRFCO-UHFFFAOYSA-N

>  <HIPPO Compound ID>  (75) 
289832

>  <fragmenstein_mode>  (75) 
expansion

>  <fragmenstein_outcome>  (75) 
acceptable

>  <distance_score>  (75) 
0.844177

>  <subsites>  (75) 
None

>  <scratch_subdir>  (75) 
/opt/xchem-fragalysis-2/maxwin/BulkDock/SCRATCH/601502/NQAJYEHWEJRFCO-UHFFFAOYSA-N-P126-P126-P183-601502

>  <inspiration_score>  (75) 
None

>  <name>  (75) 
NQAJYEHWEJRFCO-UHFFFAOYSA-N-P126-P126-P183-601502

>  <ref_mols>  (75) 
A2290a,A3436a

>  <ref_pdb>  (75) 
A0514a

>  <exports>  (75) 
['/opt/xchem-fragalysis-2/maxwin/openbind-hippo/a71ev2a/cycle_01/syndirella/elabs/openbind_a71ev2a_c1_elab_chemspace_filtered.sdf', '/opt/xchem-fragalysis-2/maxwin/BulkDock/OUTPUTS/a71ev2a_c1_elab_bulkdock_input_1GFT2LV.sdf', '/opt/xchem-fragalysis-2/maxwin/openbind-hippo/a71ev2a/cycle_01/syndirella/elabs/ASAP-0031281-001_elabs.sdf']

>  <Energy>  (75) 
108.319527

>  <tags>  (75) 
fragmenstein_placed,a71ev2a_c1_elab_bulkdock_input,BulkDock Fragalysis export,openbind_a71ev2a_c1_elabs_filtered

>  <GNINA pK>  (75) 
nan

$$$$
NQAJYEHWEJRFCO-UHFFFAOYSA-N-P183-P126-P183-601502
     RDKit          3D

 24 26  0  0  0  0  0  0  0  0999 V2000
   12.6762   14.0481   23.5750 C   0  0  0  0  0  0  0  0  0  0  0  0
   11.5129   14.5328   22.7517 C   0  0  1  0  0  0  0  0  0  0  0  0
   11.8368   14.6108   21.2664 C   0  0  0  0  0  0  0  0  0  0  0  0
   10.7650   15.2837   20.5005 C   0  0  0  0  0  0  0  0  0  0  0  0
   10.5384   15.3036   19.1476 C   0  0  0  0  0  0  0  0  0  0  0  0
    9.5431   16.2005   18.9045 O   0  0  0  0  0  0  0  0  0  0  0  0
    9.2245   16.6897   20.1341 C   0  0  0  0  0  0  0  0  0  0  0  0
    9.8889   16.1418   21.1193 N   0  0  0  0  0  0  0  0  0  0  0  0
   10.4970   13.6086   23.1067 N   0  0  0  0  0  0  0  0  0  0  0  0
    9.5014   13.6285   24.2518 C   0  0  0  0  0  0  0  0  0  0  0  0
    9.2919   14.4408   25.0537 O   0  0  0  0  0  0  0  0  0  0  0  0
    8.8486   12.3309   24.2716 C   0  0  0  0  0  0  0  0  0  0  0  0
    9.3292   11.3032   23.5450 N   0  0  0  0  0  0  0  0  0  0  0  0
    8.7361   10.2293   24.0809 N   0  0  0  0  0  0  0  0  0  0  0  0
    9.1794    8.9254   23.6437 C   0  0  0  0  0  0  0  0  0  0  0  0
    7.7777   10.5553   25.0156 C   0  0  0  0  0  0  0  0  0  0  0  0
    6.8642    9.7998   25.7482 C   0  0  0  0  0  0  0  0  0  0  0  0
    6.0091   10.4532   26.6378 C   0  0  0  0  0  0  0  0  0  0  0  0
    6.0702   11.8392   26.7795 C   0  0  0  0  0  0  0  0  0  0  0  0
    5.1574   12.4997   27.7091 N   0  0  0  0  0  0  0  0  0  0  0  0
    4.0638   11.9535   27.9193 O   0  0  0  0  0  0  0  0  0  0  0  0
    5.5510   13.5390   28.2546 O   0  0  0  0  0  0  0  0  0  0  0  0
    6.9810   12.6054   26.0510 C   0  0  0  0  0  0  0  0  0  0  0  0
    7.8216   11.9372   25.1423 C   0  0  0  0  0  0  0  0  0  0  0  0
  2  1  1  1
  2  3  1  0
  3  4  1  0
  4  5  2  0
  5  6  1  0
  6  7  1  0
  7  8  2  0
  2  9  1  0
  9 10  1  0
 10 11  2  0
 10 12  1  0
 12 13  2  0
 13 14  1  0
 14 15  1  0
 14 16  1  0
 16 17  2  0
 17 18  1  0
 18 19  2  0
 19 20  1  0
 20 21  2  0
 20 22  1  0
 19 23  1  0
 23 24  2  0
  8  4  1  0
 24 12  1  0
 24 16  1  0
M  CHG  2  20   1  22  -1
M  END
>  <energy_score>  (76) 
-18.536092

>  <fragmenstein_runtime>  (76) 
3.45878

>  <HIPPO Pose ID>  (76) 
503395

>  <fragmenstein_error>  (76) 


>  <alias>  (76) 
NQAJYEHWEJRFCO-UHFFFAOYSA-N-P183-P126-P183-601502

>  <orig_smiles>  (76) 
CC(Cc1cocn1)NC(=O)c1nn(C)c2ccc([N+](=O)[O-])cc12

>  <smiles>  (76) 
CC(Cc1cocn1)NC(=O)c1nn(C)c2ccc([N+](=O)[O-])cc12

>  <inchikey>  (76) 
NQAJYEHWEJRFCO-UHFFFAOYSA-N

>  <HIPPO Compound ID>  (76) 
289832

>  <fragmenstein_mode>  (76) 
expansion

>  <fragmenstein_outcome>  (76) 
acceptable

>  <distance_score>  (76) 
0.843225

>  <subsites>  (76) 
None

>  <scratch_subdir>  (76) 
/opt/xchem-fragalysis-2/maxwin/BulkDock/SCRATCH/601502/NQAJYEHWEJRFCO-UHFFFAOYSA-N-P183-P126-P183-601502

>  <inspiration_score>  (76) 
None

>  <name>  (76) 
NQAJYEHWEJRFCO-UHFFFAOYSA-N-P183-P126-P183-601502

>  <ref_mols>  (76) 
A2290a,A3436a

>  <ref_pdb>  (76) 
A0514a

>  <exports>  (76) 
['/opt/xchem-fragalysis-2/maxwin/openbind-hippo/a71ev2a/cycle_01/syndirella/elabs/openbind_a71ev2a_c1_elab_chemspace_filtered.sdf', '/opt/xchem-fragalysis-2/maxwin/BulkDock/OUTPUTS/a71ev2a_c1_elab_bulkdock_input_1GFT2LV.sdf', '/opt/xchem-fragalysis-2/maxwin/openbind-hippo/a71ev2a/cycle_01/syndirella/elabs/ASAP-0031281-001_elabs.sdf']

>  <Energy>  (76) 
108.863841

>  <tags>  (76) 
fragmenstein_placed,a71ev2a_c1_elab_bulkdock_input,BulkDock Fragalysis export,openbind_a71ev2a_c1_elabs_filtered

>  <GNINA pK>  (76) 
nan

$$$$
IMTOCZSSUZGMII-UHFFFAOYSA-N-P126-P126-P183-601502
     RDKit          3D

 24 26  0  0  0  0  0  0  0  0999 V2000
    8.5934   17.3963   20.7067 C   0  0  0  0  0  0  0  0  0  0  0  0
    9.5652   16.3161   20.4736 C   0  0  0  0  0  0  0  0  0  0  0  0
   10.3430   15.7207   21.3500 N   0  0  0  0  0  0  0  0  0  0  0  0
   11.1654   14.9348   20.5912 C   0  0  0  0  0  0  0  0  0  0  0  0
   12.3928   14.3341   21.1524 C   0  0  0  0  0  0  0  0  0  0  0  0
   12.3482   14.1922   22.6570 C   0  0  0  0  0  0  0  0  0  0  0  0
   11.3627   13.2607   23.0967 N   0  0  0  0  0  0  0  0  0  0  0  0
   10.4797   13.2636   24.3428 C   0  0  0  0  0  0  0  0  0  0  0  0
   10.3554   14.0644   25.1781 O   0  0  0  0  0  0  0  0  0  0  0  0
    9.6912   12.0284   24.3232 C   0  0  0  0  0  0  0  0  0  0  0  0
   10.0473   11.0029   23.5296 N   0  0  0  0  0  0  0  0  0  0  0  0
    9.1961   10.0190   23.8535 N   0  0  0  0  0  0  0  0  0  0  0  0
    9.3316    8.7544   23.1709 C   0  0  0  0  0  0  0  0  0  0  0  0
    8.2787   10.3866   24.8101 C   0  0  0  0  0  0  0  0  0  0  0  0
    7.2505    9.6940   25.4523 C   0  0  0  0  0  0  0  0  0  0  0  0
    6.4372   10.3916   26.3481 C   0  0  0  0  0  0  0  0  0  0  0  0
    6.6674   11.7462   26.5975 C   0  0  0  0  0  0  0  0  0  0  0  0
    5.7998   12.4541   27.5380 N   0  0  0  0  0  0  0  0  0  0  0  0
    4.6519   12.0152   27.7048 O   0  0  0  0  0  0  0  0  0  0  0  0
    6.2818   13.4233   28.1412 O   0  0  0  0  0  0  0  0  0  0  0  0
    7.7278   12.4320   25.9928 C   0  0  0  0  0  0  0  0  0  0  0  0
    8.5416   11.7249   25.0874 C   0  0  0  0  0  0  0  0  0  0  0  0
   10.7601   14.9924   19.2841 C   0  0  0  0  0  0  0  0  0  0  0  0
    9.7271   15.8743   19.1939 O   0  0  0  0  0  0  0  0  0  0  0  0
  1  2  1  0
  2  3  2  0
  3  4  1  0
  4  5  1  0
  5  6  1  0
  6  7  1  0
  7  8  1  0
  8  9  2  0
  8 10  1  0
 10 11  2  0
 11 12  1  0
 12 13  1  0
 12 14  1  0
 14 15  2  0
 15 16  1  0
 16 17  2  0
 17 18  1  0
 18 19  2  0
 18 20  1  0
 17 21  1  0
 21 22  2  0
  4 23  2  0
 23 24  1  0
 24  2  1  0
 22 10  1  0
 22 14  1  0
M  CHG  2  18   1  20  -1
M  END
>  <energy_score>  (77) 
-22.64931

>  <fragmenstein_runtime>  (77) 
3.14609

>  <HIPPO Pose ID>  (77) 
503396

>  <fragmenstein_error>  (77) 


>  <alias>  (77) 
IMTOCZSSUZGMII-UHFFFAOYSA-N-P126-P126-P183-601502

>  <orig_smiles>  (77) 
Cc1nc(CCNC(=O)c2nn(C)c3ccc([N+](=O)[O-])cc23)co1

>  <smiles>  (77) 
Cc1nc(CCNC(=O)c2nn(C)c3ccc([N+](=O)[O-])cc23)co1

>  <inchikey>  (77) 
IMTOCZSSUZGMII-UHFFFAOYSA-N

>  <HIPPO Compound ID>  (77) 
289833

>  <fragmenstein_mode>  (77) 
expansion

>  <fragmenstein_outcome>  (77) 
acceptable

>  <distance_score>  (77) 
0.529264

>  <subsites>  (77) 
None

>  <scratch_subdir>  (77) 
/opt/xchem-fragalysis-2/maxwin/BulkDock/SCRATCH/601502/IMTOCZSSUZGMII-UHFFFAOYSA-N-P126-P126-P183-601502

>  <inspiration_score>  (77) 
None

>  <name>  (77) 
IMTOCZSSUZGMII-UHFFFAOYSA-N-P126-P126-P183-601502

>  <ref_mols>  (77) 
A2290a,A3436a

>  <ref_pdb>  (77) 
A0514a

>  <exports>  (77) 
['/opt/xchem-fragalysis-2/maxwin/openbind-hippo/a71ev2a/cycle_01/bulkdock/openbind_a71ev2a_c1_elab_chemspace.sdf', '/opt/xchem-fragalysis-2/maxwin/openbind-hippo/a71ev2a/cycle_01/syndirella/elabs/openbind_a71ev2a_c1_elab_chemspace_filtered.sdf', '/opt/xchem-fragalysis-2/maxwin/BulkDock/OUTPUTS/a71ev2a_c1_elab_bulkdock_input_1GFT2LV.sdf', '/opt/xchem-fragalysis-2/maxwin/openbind-hippo/a71ev2a/cycle_01/syndirella/elabs/ASAP-0031281-001_elabs.sdf']

>  <Energy>  (77) 
101.463793

>  <tags>  (77) 
fragmenstein_placed,a71ev2a_c1_elab_bulkdock_input,BulkDock Fragalysis export,openbind_a71ev2a_c1_elabs_filtered

>  <GNINA pK>  (77) 
nan

$$$$
IMTOCZSSUZGMII-UHFFFAOYSA-N-P183-P126-P183-601502
     RDKit          3D

 24 26  0  0  0  0  0  0  0  0999 V2000
    8.4750   17.5808   20.4477 C   0  0  0  0  0  0  0  0  0  0  0  0
    9.4873   16.5468   20.2400 C   0  0  0  0  0  0  0  0  0  0  0  0
   10.2576   16.0041   21.1482 N   0  0  0  0  0  0  0  0  0  0  0  0
   11.0705   15.1709   20.4374 C   0  0  0  0  0  0  0  0  0  0  0  0
   12.2396   14.5564   21.0875 C   0  0  0  0  0  0  0  0  0  0  0  0
   12.1156   14.5012   22.6006 C   0  0  0  0  0  0  0  0  0  0  0  0
   11.1757   13.5197   23.0454 N   0  0  0  0  0  0  0  0  0  0  0  0
   10.1463   13.5702   24.1709 C   0  0  0  0  0  0  0  0  0  0  0  0
    9.9440   14.3886   24.9719 O   0  0  0  0  0  0  0  0  0  0  0  0
    9.3950   12.3108   24.1654 C   0  0  0  0  0  0  0  0  0  0  0  0
    9.8132   11.2505   23.4526 N   0  0  0  0  0  0  0  0  0  0  0  0
    9.0536   10.2344   23.8907 N   0  0  0  0  0  0  0  0  0  0  0  0
    9.3399    8.9110   23.3858 C   0  0  0  0  0  0  0  0  0  0  0  0
    8.1104   10.6217   24.8168 C   0  0  0  0  0  0  0  0  0  0  0  0
    7.1497    9.9196   25.5516 C   0  0  0  0  0  0  0  0  0  0  0  0
    6.2890   10.6374   26.3853 C   0  0  0  0  0  0  0  0  0  0  0  0
    6.3970   12.0261   26.4773 C   0  0  0  0  0  0  0  0  0  0  0  0
    5.4752   12.7559   27.3483 N   0  0  0  0  0  0  0  0  0  0  0  0
    4.3978   12.2100   27.6320 O   0  0  0  0  0  0  0  0  0  0  0  0
    5.8492   13.8519   27.7882 O   0  0  0  0  0  0  0  0  0  0  0  0
    7.3826   12.7290   25.7738 C   0  0  0  0  0  0  0  0  0  0  0  0
    8.2518   12.0003   24.9384 C   0  0  0  0  0  0  0  0  0  0  0  0
   10.6932   15.1743   19.1177 C   0  0  0  0  0  0  0  0  0  0  0  0
    9.6641   16.0566   18.9792 O   0  0  0  0  0  0  0  0  0  0  0  0
  1  2  1  0
  2  3  2  0
  3  4  1  0
  4  5  1  0
  5  6  1  0
  6  7  1  0
  7  8  1  0
  8  9  2  0
  8 10  1  0
 10 11  2  0
 11 12  1  0
 12 13  1  0
 12 14  1  0
 14 15  2  0
 15 16  1  0
 16 17  2  0
 17 18  1  0
 18 19  2  0
 18 20  1  0
 17 21  1  0
 21 22  2  0
  4 23  2  0
 23 24  1  0
 24  2  1  0
 22 10  1  0
 22 14  1  0
M  CHG  2  18   1  20  -1
M  END
>  <energy_score>  (78) 
-21.952455

>  <fragmenstein_runtime>  (78) 
3.55974

>  <HIPPO Pose ID>  (78) 
503397

>  <fragmenstein_error>  (78) 


>  <alias>  (78) 
IMTOCZSSUZGMII-UHFFFAOYSA-N-P183-P126-P183-601502

>  <orig_smiles>  (78) 
Cc1nc(CCNC(=O)c2nn(C)c3ccc([N+](=O)[O-])cc23)co1

>  <smiles>  (78) 
Cc1nc(CCNC(=O)c2nn(C)c3ccc([N+](=O)[O-])cc23)co1

>  <inchikey>  (78) 
IMTOCZSSUZGMII-UHFFFAOYSA-N

>  <HIPPO Compound ID>  (78) 
289833

>  <fragmenstein_mode>  (78) 
expansion

>  <fragmenstein_outcome>  (78) 
acceptable

>  <distance_score>  (78) 
0.531525

>  <subsites>  (78) 
None

>  <scratch_subdir>  (78) 
/opt/xchem-fragalysis-2/maxwin/BulkDock/SCRATCH/601502/IMTOCZSSUZGMII-UHFFFAOYSA-N-P183-P126-P183-601502

>  <inspiration_score>  (78) 
None

>  <name>  (78) 
IMTOCZSSUZGMII-UHFFFAOYSA-N-P183-P126-P183-601502

>  <ref_mols>  (78) 
A2290a,A3436a

>  <ref_pdb>  (78) 
A0514a

>  <exports>  (78) 
['/opt/xchem-fragalysis-2/maxwin/openbind-hippo/a71ev2a/cycle_01/syndirella/elabs/openbind_a71ev2a_c1_elab_chemspace_filtered.sdf', '/opt/xchem-fragalysis-2/maxwin/BulkDock/OUTPUTS/a71ev2a_c1_elab_bulkdock_input_1GFT2LV.sdf', '/opt/xchem-fragalysis-2/maxwin/openbind-hippo/a71ev2a/cycle_01/syndirella/elabs/ASAP-0031281-001_elabs.sdf']

>  <Energy>  (78) 
102.160649

>  <tags>  (78) 
fragmenstein_placed,a71ev2a_c1_elab_bulkdock_input,BulkDock Fragalysis export,openbind_a71ev2a_c1_elabs_filtered

>  <GNINA pK>  (78) 
nan

$$$$
ZKBLNKVTSMZQOH-UHFFFAOYSA-N-P126-P126-P183-601502
     RDKit          3D

 24 26  0  0  0  0  0  0  0  0999 V2000
    8.5862   17.3957   20.7074 C   0  0  0  0  0  0  0  0  0  0  0  0
    9.5561   16.3152   20.4681 C   0  0  0  0  0  0  0  0  0  0  0  0
   10.3326   15.7136   21.3414 N   0  0  0  0  0  0  0  0  0  0  0  0
   11.1624   14.9417   20.5763 C   0  0  0  0  0  0  0  0  0  0  0  0
   12.4024   14.3594   21.1283 C   0  0  0  0  0  0  0  0  0  0  0  0
   12.4015   14.3005   22.6384 C   0  0  0  0  0  0  0  0  0  0  0  0
   11.4575   13.3596   23.1413 N   0  0  0  0  0  0  0  0  0  0  0  0
   10.5622   13.4149   24.3788 C   0  0  0  0  0  0  0  0  0  0  0  0
   10.5031   14.2031   25.2333 O   0  0  0  0  0  0  0  0  0  0  0  0
    9.7134   12.2227   24.3385 C   0  0  0  0  0  0  0  0  0  0  0  0
   10.0256   11.2149   23.5059 N   0  0  0  0  0  0  0  0  0  0  0  0
    9.2368   10.1969   23.9100 N   0  0  0  0  0  0  0  0  0  0  0  0
    9.5795    8.8301   23.5170 C   0  0  0  0  0  0  0  0  0  0  0  0
    8.8987    7.9604   24.2856 F   0  0  0  0  0  0  0  0  0  0  0  0
    9.2957    8.5523   22.2320 F   0  0  0  0  0  0  0  0  0  0  0  0
   10.9031    8.5797   23.6721 F   0  0  0  0  0  0  0  0  0  0  0  0
    8.2962   10.5871   24.8472 C   0  0  0  0  0  0  0  0  0  0  0  0
    7.2699    9.9074   25.5168 C   0  0  0  0  0  0  0  0  0  0  0  0
    6.4993   10.6177   26.4411 C   0  0  0  0  0  0  0  0  0  0  0  0
    6.7492   11.9607   26.7006 C   0  0  0  0  0  0  0  0  0  0  0  0
    7.7906   12.6254   26.0513 C   0  0  0  0  0  0  0  0  0  0  0  0
    8.5733   11.9246   25.1165 C   0  0  0  0  0  0  0  0  0  0  0  0
   10.7550   15.0027   19.2705 C   0  0  0  0  0  0  0  0  0  0  0  0
    9.7200   15.8824   19.1857 O   0  0  0  0  0  0  0  0  0  0  0  0
  1  2  1  0
  2  3  2  0
  3  4  1  0
  4  5  1  0
  5  6  1  0
  6  7  1  0
  7  8  1  0
  8  9  2  0
  8 10  1  0
 10 11  2  0
 11 12  1  0
 12 13  1  0
 13 14  1  0
 13 15  1  0
 13 16  1  0
 12 17  1  0
 17 18  2  0
 18 19  1  0
 19 20  2  0
 20 21  1  0
 21 22  2  0
  4 23  2  0
 23 24  1  0
 24  2  1  0
 22 10  1  0
 22 17  1  0
M  END
>  <energy_score>  (79) 
-9.756308

>  <fragmenstein_runtime>  (79) 
2.16322

>  <HIPPO Pose ID>  (79) 
503398

>  <fragmenstein_error>  (79) 


>  <alias>  (79) 
ZKBLNKVTSMZQOH-UHFFFAOYSA-N-P126-P126-P183-601502

>  <orig_smiles>  (79) 
Cc1nc(CCNC(=O)c2nn(C(F)(F)F)c3ccccc23)co1

>  <smiles>  (79) 
Cc1nc(CCNC(=O)c2nn(C(F)(F)F)c3ccccc23)co1

>  <inchikey>  (79) 
ZKBLNKVTSMZQOH-UHFFFAOYSA-N

>  <HIPPO Compound ID>  (79) 
289834

>  <fragmenstein_mode>  (79) 
expansion

>  <fragmenstein_outcome>  (79) 
acceptable

>  <distance_score>  (79) 
0.566347

>  <subsites>  (79) 
None

>  <scratch_subdir>  (79) 
/opt/xchem-fragalysis-2/maxwin/BulkDock/SCRATCH/601502/ZKBLNKVTSMZQOH-UHFFFAOYSA-N-P126-P126-P183-601502

>  <inspiration_score>  (79) 
None

>  <name>  (79) 
ZKBLNKVTSMZQOH-UHFFFAOYSA-N-P126-P126-P183-601502

>  <ref_mols>  (79) 
A2290a,A3436a

>  <ref_pdb>  (79) 
A0514a

>  <exports>  (79) 
['/opt/xchem-fragalysis-2/maxwin/openbind-hippo/a71ev2a/cycle_01/syndirella/elabs/openbind_a71ev2a_c1_elab_chemspace_filtered.sdf', '/opt/xchem-fragalysis-2/maxwin/BulkDock/OUTPUTS/a71ev2a_c1_elab_bulkdock_input_1GFT2LV.sdf', '/opt/xchem-fragalysis-2/maxwin/openbind-hippo/a71ev2a/cycle_01/syndirella/elabs/ASAP-0031281-001_elabs.sdf']

>  <Energy>  (79) 
148.86812

>  <tags>  (79) 
fragmenstein_placed,a71ev2a_c1_elab_bulkdock_input,BulkDock Fragalysis export,openbind_a71ev2a_c1_elabs_filtered

>  <GNINA pK>  (79) 
nan

$$$$
ZKBLNKVTSMZQOH-UHFFFAOYSA-N-P183-P126-P183-601502
     RDKit          3D

 24 26  0  0  0  0  0  0  0  0999 V2000
    8.4683   17.5819   20.4411 C   0  0  0  0  0  0  0  0  0  0  0  0
    9.4835   16.5524   20.2277 C   0  0  0  0  0  0  0  0  0  0  0  0
   10.2633   16.0171   21.1315 N   0  0  0  0  0  0  0  0  0  0  0  0
   11.0813   15.1930   20.4156 C   0  0  0  0  0  0  0  0  0  0  0  0
   12.2634   14.5975   21.0601 C   0  0  0  0  0  0  0  0  0  0  0  0
   12.1529   14.5739   22.5748 C   0  0  0  0  0  0  0  0  0  0  0  0
   11.2080   13.6035   23.0279 N   0  0  0  0  0  0  0  0  0  0  0  0
   10.2275   13.6439   24.1962 C   0  0  0  0  0  0  0  0  0  0  0  0
   10.0795   14.4411   25.0294 O   0  0  0  0  0  0  0  0  0  0  0  0
    9.4525   12.4012   24.1702 C   0  0  0  0  0  0  0  0  0  0  0  0
    9.8636   11.3571   23.4323 N   0  0  0  0  0  0  0  0  0  0  0  0
    9.1204   10.3164   23.8772 N   0  0  0  0  0  0  0  0  0  0  0  0
    9.4845    8.9554   23.4677 C   0  0  0  0  0  0  0  0  0  0  0  0
    8.6888    8.0466   24.0646 F   0  0  0  0  0  0  0  0  0  0  0  0
    9.3999    8.7721   22.1345 F   0  0  0  0  0  0  0  0  0  0  0  0
   10.7621    8.6531   23.8123 F   0  0  0  0  0  0  0  0  0  0  0  0
    8.1648   10.7048   24.8018 C   0  0  0  0  0  0  0  0  0  0  0  0
    7.2018   10.0102   25.5457 C   0  0  0  0  0  0  0  0  0  0  0  0
    6.3606   10.7335   26.3963 C   0  0  0  0  0  0  0  0  0  0  0  0
    6.4755   12.1129   26.5100 C   0  0  0  0  0  0  0  0  0  0  0  0
    7.4502   12.8002   25.7866 C   0  0  0  0  0  0  0  0  0  0  0  0
    8.3110   12.0822   24.9360 C   0  0  0  0  0  0  0  0  0  0  0  0
   10.6922   15.1867   19.0997 C   0  0  0  0  0  0  0  0  0  0  0  0
    9.6543   16.0599   18.9672 O   0  0  0  0  0  0  0  0  0  0  0  0
  1  2  1  0
  2  3  2  0
  3  4  1  0
  4  5  1  0
  5  6  1  0
  6  7  1  0
  7  8  1  0
  8  9  2  0
  8 10  1  0
 10 11  2  0
 11 12  1  0
 12 13  1  0
 13 14  1  0
 13 15  1  0
 13 16  1  0
 12 17  1  0
 17 18  2  0
 18 19  1  0
 19 20  2  0
 20 21  1  0
 21 22  2  0
  4 23  2  0
 23 24  1  0
 24  2  1  0
 22 10  1  0
 22 17  1  0
M  END
>  <energy_score>  (80) 
-10.729615

>  <fragmenstein_runtime>  (80) 
3.308762

>  <HIPPO Pose ID>  (80) 
503399

>  <fragmenstein_error>  (80) 


>  <alias>  (80) 
ZKBLNKVTSMZQOH-UHFFFAOYSA-N-P183-P126-P183-601502

>  <orig_smiles>  (80) 
Cc1nc(CCNC(=O)c2nn(C(F)(F)F)c3ccccc23)co1

>  <smiles>  (80) 
Cc1nc(CCNC(=O)c2nn(C(F)(F)F)c3ccccc23)co1

>  <inchikey>  (80) 
ZKBLNKVTSMZQOH-UHFFFAOYSA-N

>  <HIPPO Compound ID>  (80) 
289834

>  <fragmenstein_mode>  (80) 
expansion

>  <fragmenstein_outcome>  (80) 
acceptable

>  <distance_score>  (80) 
0.541232

>  <subsites>  (80) 
None

>  <scratch_subdir>  (80) 
/opt/xchem-fragalysis-2/maxwin/BulkDock/SCRATCH/601502/ZKBLNKVTSMZQOH-UHFFFAOYSA-N-P183-P126-P183-601502

>  <inspiration_score>  (80) 
None

>  <name>  (80) 
ZKBLNKVTSMZQOH-UHFFFAOYSA-N-P183-P126-P183-601502

>  <ref_mols>  (80) 
A2290a,A3436a

>  <ref_pdb>  (80) 
A0514a

>  <exports>  (80) 
['/opt/xchem-fragalysis-2/maxwin/openbind-hippo/a71ev2a/cycle_01/syndirella/elabs/openbind_a71ev2a_c1_elab_chemspace_filtered.sdf', '/opt/xchem-fragalysis-2/maxwin/BulkDock/OUTPUTS/a71ev2a_c1_elab_bulkdock_input_1GFT2LV.sdf', '/opt/xchem-fragalysis-2/maxwin/openbind-hippo/a71ev2a/cycle_01/syndirella/elabs/ASAP-0031281-001_elabs.sdf']

>  <Energy>  (80) 
147.894813

>  <tags>  (80) 
fragmenstein_placed,a71ev2a_c1_elab_bulkdock_input,BulkDock Fragalysis export,openbind_a71ev2a_c1_elabs_filtered

>  <GNINA pK>  (80) 
nan

$$$$
KPMIJLFQQLWRSU-UHFFFAOYSA-N-P126-P126-P183-601502
     RDKit          3D

 24 26  0  0  0  0  0  0  0  0999 V2000
   12.9898   13.4946   23.5306 C   0  0  0  0  0  0  0  0  0  0  0  0
   11.8519   14.2082   22.8418 C   0  0  1  0  0  0  0  0  0  0  0  0
   12.0874   14.3430   21.3445 C   0  0  0  0  0  0  0  0  0  0  0  0
   10.9591   14.9985   20.6490 C   0  0  0  0  0  0  0  0  0  0  0  0
   10.6941   15.0725   19.3062 C   0  0  0  0  0  0  0  0  0  0  0  0
    9.6880   15.9723   19.1205 O   0  0  0  0  0  0  0  0  0  0  0  0
    9.3904   16.3920   20.3771 C   0  0  0  0  0  0  0  0  0  0  0  0
   10.0738   15.7963   21.3223 N   0  0  0  0  0  0  0  0  0  0  0  0
   10.7335   13.4112   23.1971 N   0  0  0  0  0  0  0  0  0  0  0  0
    9.8029   13.4911   24.3992 C   0  0  0  0  0  0  0  0  0  0  0  0
    9.7485   14.2699   25.2605 O   0  0  0  0  0  0  0  0  0  0  0  0
    8.9851   12.2884   24.3537 C   0  0  0  0  0  0  0  0  0  0  0  0
    9.3098   11.2979   23.5005 N   0  0  0  0  0  0  0  0  0  0  0  0
    8.6960   10.2150   24.0241 N   0  0  0  0  0  0  0  0  0  0  0  0
    9.2028    8.8743   23.7186 C   0  0  0  0  0  0  0  0  0  0  0  0
   10.5580    8.8436   23.7659 F   0  0  0  0  0  0  0  0  0  0  0  0
    8.8487    8.4090   22.5115 F   0  0  0  0  0  0  0  0  0  0  0  0
    8.7214    8.0052   24.6294 F   0  0  0  0  0  0  0  0  0  0  0  0
    7.7950   10.5521   25.0205 C   0  0  0  0  0  0  0  0  0  0  0  0
    6.8837    9.8100   25.7742 C   0  0  0  0  0  0  0  0  0  0  0  0
    6.1651   10.4639   26.7774 C   0  0  0  0  0  0  0  0  0  0  0  0
    6.3555   11.8172   27.0313 C   0  0  0  0  0  0  0  0  0  0  0  0
    7.2684   12.5536   26.2798 C   0  0  0  0  0  0  0  0  0  0  0  0
    7.9760   11.9101   25.2517 C   0  0  0  0  0  0  0  0  0  0  0  0
  2  1  1  1
  2  3  1  0
  3  4  1  0
  4  5  2  0
  5  6  1  0
  6  7  1  0
  7  8  2  0
  2  9  1  0
  9 10  1  0
 10 11  2  0
 10 12  1  0
 12 13  2  0
 13 14  1  0
 14 15  1  0
 15 16  1  0
 15 17  1  0
 15 18  1  0
 14 19  1  0
 19 20  2  0
 20 21  1  0
 21 22  2  0
 22 23  1  0
 23 24  2  0
  8  4  1  0
 24 12  1  0
 24 19  1  0
M  END
>  <energy_score>  (81) 
-24.507362

>  <fragmenstein_runtime>  (81) 
3.172561

>  <HIPPO Pose ID>  (81) 
503400

>  <fragmenstein_error>  (81) 


>  <alias>  (81) 
KPMIJLFQQLWRSU-UHFFFAOYSA-N-P126-P126-P183-601502

>  <orig_smiles>  (81) 
CC(Cc1cocn1)NC(=O)c1nn(C(F)(F)F)c2ccccc12

>  <smiles>  (81) 
CC(Cc1cocn1)NC(=O)c1nn(C(F)(F)F)c2ccccc12

>  <inchikey>  (81) 
KPMIJLFQQLWRSU-UHFFFAOYSA-N

>  <HIPPO Compound ID>  (81) 
289835

>  <fragmenstein_mode>  (81) 
expansion

>  <fragmenstein_outcome>  (81) 
acceptable

>  <distance_score>  (81) 
0.787852

>  <subsites>  (81) 
None

>  <scratch_subdir>  (81) 
/opt/xchem-fragalysis-2/maxwin/BulkDock/SCRATCH/601502/KPMIJLFQQLWRSU-UHFFFAOYSA-N-P126-P126-P183-601502

>  <inspiration_score>  (81) 
None

>  <name>  (81) 
KPMIJLFQQLWRSU-UHFFFAOYSA-N-P126-P126-P183-601502

>  <ref_mols>  (81) 
A2290a,A3436a

>  <ref_pdb>  (81) 
A0514a

>  <exports>  (81) 
['/opt/xchem-fragalysis-2/maxwin/openbind-hippo/a71ev2a/cycle_01/syndirella/elabs/openbind_a71ev2a_c1_elab_chemspace_filtered.sdf', '/opt/xchem-fragalysis-2/maxwin/BulkDock/OUTPUTS/a71ev2a_c1_elab_bulkdock_input_1GFT2LV.sdf', '/opt/xchem-fragalysis-2/maxwin/openbind-hippo/a71ev2a/cycle_01/syndirella/elabs/ASAP-0031281-001_elabs.sdf']

>  <Energy>  (81) 
156.449039

>  <tags>  (81) 
fragmenstein_placed,a71ev2a_c1_elab_bulkdock_input,BulkDock Fragalysis export,openbind_a71ev2a_c1_elabs_filtered

>  <GNINA pK>  (81) 
nan

$$$$
KPMIJLFQQLWRSU-UHFFFAOYSA-N-P183-P126-P183-601502
     RDKit          3D

 24 26  0  0  0  0  0  0  0  0999 V2000
   12.6812   14.0798   23.5485 C   0  0  0  0  0  0  0  0  0  0  0  0
   11.5249   14.6000   22.7376 C   0  0  1  0  0  0  0  0  0  0  0  0
   11.8423   14.6598   21.2504 C   0  0  0  0  0  0  0  0  0  0  0  0
   10.7663   15.3234   20.4841 C   0  0  0  0  0  0  0  0  0  0  0  0
   10.5171   15.3060   19.1357 C   0  0  0  0  0  0  0  0  0  0  0  0
    9.5221   16.2005   18.8840 O   0  0  0  0  0  0  0  0  0  0  0  0
    9.2250   16.7241   20.1048 C   0  0  0  0  0  0  0  0  0  0  0  0
    9.9097   16.2079   21.0926 N   0  0  0  0  0  0  0  0  0  0  0  0
   10.4963   13.6924   23.0876 N   0  0  0  0  0  0  0  0  0  0  0  0
    9.5135   13.7118   24.2465 C   0  0  0  0  0  0  0  0  0  0  0  0
    9.3303   14.5138   25.0657 O   0  0  0  0  0  0  0  0  0  0  0  0
    8.8477   12.4243   24.2305 C   0  0  0  0  0  0  0  0  0  0  0  0
    9.3270   11.4409   23.4483 N   0  0  0  0  0  0  0  0  0  0  0  0
    8.8073   10.3157   23.9848 N   0  0  0  0  0  0  0  0  0  0  0  0
    9.3709    9.0167   23.5916 C   0  0  0  0  0  0  0  0  0  0  0  0
   10.6851    8.9459   23.9124 F   0  0  0  0  0  0  0  0  0  0  0  0
    9.2998    8.7947   22.2629 F   0  0  0  0  0  0  0  0  0  0  0  0
    8.7310    8.0117   24.2145 F   0  0  0  0  0  0  0  0  0  0  0  0
    7.8498   10.5977   24.9469 C   0  0  0  0  0  0  0  0  0  0  0  0
    6.9723    9.8094   25.6909 C   0  0  0  0  0  0  0  0  0  0  0  0
    6.1252   10.4271   26.6166 C   0  0  0  0  0  0  0  0  0  0  0  0
    6.1564   11.8011   26.8096 C   0  0  0  0  0  0  0  0  0  0  0  0
    7.0241   12.5909   26.0614 C   0  0  0  0  0  0  0  0  0  0  0  0
    7.8544   11.9774   25.1076 C   0  0  0  0  0  0  0  0  0  0  0  0
  2  1  1  1
  2  3  1  0
  3  4  1  0
  4  5  2  0
  5  6  1  0
  6  7  1  0
  7  8  2  0
  2  9  1  0
  9 10  1  0
 10 11  2  0
 10 12  1  0
 12 13  2  0
 13 14  1  0
 14 15  1  0
 15 16  1  0
 15 17  1  0
 15 18  1  0
 14 19  1  0
 19 20  2  0
 20 21  1  0
 21 22  2  0
 22 23  1  0
 23 24  2  0
  8  4  1  0
 24 12  1  0
 24 19  1  0
M  END
>  <energy_score>  (82) 
-25.832386

>  <fragmenstein_runtime>  (82) 
3.345787

>  <HIPPO Pose ID>  (82) 
503401

>  <fragmenstein_error>  (82) 


>  <alias>  (82) 
KPMIJLFQQLWRSU-UHFFFAOYSA-N-P183-P126-P183-601502

>  <orig_smiles>  (82) 
CC(Cc1cocn1)NC(=O)c1nn(C(F)(F)F)c2ccccc12

>  <smiles>  (82) 
CC(Cc1cocn1)NC(=O)c1nn(C(F)(F)F)c2ccccc12

>  <inchikey>  (82) 
KPMIJLFQQLWRSU-UHFFFAOYSA-N

>  <HIPPO Compound ID>  (82) 
289835

>  <fragmenstein_mode>  (82) 
expansion

>  <fragmenstein_outcome>  (82) 
acceptable

>  <distance_score>  (82) 
0.828739

>  <subsites>  (82) 
None

>  <scratch_subdir>  (82) 
/opt/xchem-fragalysis-2/maxwin/BulkDock/SCRATCH/601502/KPMIJLFQQLWRSU-UHFFFAOYSA-N-P183-P126-P183-601502

>  <inspiration_score>  (82) 
None

>  <name>  (82) 
KPMIJLFQQLWRSU-UHFFFAOYSA-N-P183-P126-P183-601502

>  <ref_mols>  (82) 
A2290a,A3436a

>  <ref_pdb>  (82) 
A0514a

>  <exports>  (82) 
['/opt/xchem-fragalysis-2/maxwin/openbind-hippo/a71ev2a/cycle_01/syndirella/elabs/openbind_a71ev2a_c1_elab_chemspace_filtered.sdf', '/opt/xchem-fragalysis-2/maxwin/BulkDock/OUTPUTS/a71ev2a_c1_elab_bulkdock_input_1GFT2LV.sdf', '/opt/xchem-fragalysis-2/maxwin/openbind-hippo/a71ev2a/cycle_01/syndirella/elabs/ASAP-0031281-001_elabs.sdf']

>  <Energy>  (82) 
155.124016

>  <tags>  (82) 
fragmenstein_placed,a71ev2a_c1_elab_bulkdock_input,BulkDock Fragalysis export,openbind_a71ev2a_c1_elabs_filtered

>  <GNINA pK>  (82) 
nan

$$$$
PXZVULLCMWPKNR-UHFFFAOYSA-N-P126-P126-P183-601502
     RDKit          3D

 24 26  0  0  0  0  0  0  0  0999 V2000
    9.8305   17.0823   18.2772 C   0  0  0  0  0  0  0  0  0  0  0  0
    9.5880   16.5326   19.6070 C   0  0  0  0  0  0  0  0  0  0  0  0
    8.5855   17.1496   20.2829 O   0  0  0  0  0  0  0  0  0  0  0  0
    8.3512   16.3159   21.3155 C   0  0  0  0  0  0  0  0  0  0  0  0
    9.2015   15.3249   21.4468 N   0  0  0  0  0  0  0  0  0  0  0  0
   10.0778   15.5290   20.4115 C   0  0  0  0  0  0  0  0  0  0  0  0
   11.2722   14.6768   20.2551 C   0  0  0  0  0  0  0  0  0  0  0  0
   12.0124   14.4029   21.5633 C   0  0  0  0  0  0  0  0  0  0  0  0
   11.3704   13.3555   22.3128 N   0  0  0  0  0  0  0  0  0  0  0  0
   10.7678   13.3643   23.7271 C   0  0  0  0  0  0  0  0  0  0  0  0
   10.7629   14.1985   24.5417 O   0  0  0  0  0  0  0  0  0  0  0  0
   10.0399   12.0990   23.9174 C   0  0  0  0  0  0  0  0  0  0  0  0
   10.3830   11.0251   23.1958 N   0  0  0  0  0  0  0  0  0  0  0  0
    9.5563   10.0378   23.6070 N   0  0  0  0  0  0  0  0  0  0  0  0
    9.6326    8.7282   22.9499 C   0  0  0  0  0  0  0  0  0  0  0  0
    8.4412    8.1025   22.9783 F   0  0  0  0  0  0  0  0  0  0  0  0
    9.9992    8.8453   21.6526 F   0  0  0  0  0  0  0  0  0  0  0  0
   10.5383    7.9015   23.5199 F   0  0  0  0  0  0  0  0  0  0  0  0
    8.6717   10.4573   24.5817 C   0  0  0  0  0  0  0  0  0  0  0  0
    7.6582    9.8015   25.2921 C   0  0  0  0  0  0  0  0  0  0  0  0
    6.8916   10.5494   26.1903 C   0  0  0  0  0  0  0  0  0  0  0  0
    7.1314   11.9073   26.3779 C   0  0  0  0  0  0  0  0  0  0  0  0
    8.1578   12.5508   25.6798 C   0  0  0  0  0  0  0  0  0  0  0  0
    8.9460   11.8117   24.7767 C   0  0  0  0  0  0  0  0  0  0  0  0
  1  2  1  0
  2  3  1  0
  3  4  1  0
  4  5  2  0
  5  6  1  0
  6  7  1  0
  7  8  1  0
  8  9  1  0
  9 10  1  0
 10 11  2  0
 10 12  1  0
 12 13  2  0
 13 14  1  0
 14 15  1  0
 15 16  1  0
 15 17  1  0
 15 18  1  0
 14 19  1  0
 19 20  2  0
 20 21  1  0
 21 22  2  0
 22 23  1  0
 23 24  2  0
  6  2  2  0
 24 12  1  0
 24 19  1  0
M  END
>  <energy_score>  (83) 
-34.078764

>  <fragmenstein_runtime>  (83) 
5.691282

>  <HIPPO Pose ID>  (83) 
503402

>  <fragmenstein_error>  (83) 


>  <alias>  (83) 
PXZVULLCMWPKNR-UHFFFAOYSA-N-P126-P126-P183-601502

>  <orig_smiles>  (83) 
Cc1ocnc1CCNC(=O)c1nn(C(F)(F)F)c2ccccc12

>  <smiles>  (83) 
Cc1ocnc1CCNC(=O)c1nn(C(F)(F)F)c2ccccc12

>  <inchikey>  (83) 
PXZVULLCMWPKNR-UHFFFAOYSA-N

>  <HIPPO Compound ID>  (83) 
289836

>  <fragmenstein_mode>  (83) 
expansion

>  <fragmenstein_outcome>  (83) 
acceptable

>  <distance_score>  (83) 
0.886206

>  <subsites>  (83) 
None

>  <scratch_subdir>  (83) 
/opt/xchem-fragalysis-2/maxwin/BulkDock/SCRATCH/601502/PXZVULLCMWPKNR-UHFFFAOYSA-N-P126-P126-P183-601502

>  <inspiration_score>  (83) 
None

>  <name>  (83) 
PXZVULLCMWPKNR-UHFFFAOYSA-N-P126-P126-P183-601502

>  <ref_mols>  (83) 
A2290a,A3436a

>  <ref_pdb>  (83) 
A0514a

>  <exports>  (83) 
['/opt/xchem-fragalysis-2/maxwin/openbind-hippo/a71ev2a/cycle_01/syndirella/elabs/openbind_a71ev2a_c1_elab_chemspace_filtered.sdf', '/opt/xchem-fragalysis-2/maxwin/BulkDock/OUTPUTS/a71ev2a_c1_elab_bulkdock_input_1GFT2LV.sdf', '/opt/xchem-fragalysis-2/maxwin/openbind-hippo/a71ev2a/cycle_01/syndirella/elabs/ASAP-0031281-001_elabs.sdf']

>  <Energy>  (83) 
149.850347

>  <tags>  (83) 
fragmenstein_placed,a71ev2a_c1_elab_bulkdock_input,BulkDock Fragalysis export,openbind_a71ev2a_c1_elabs_filtered

>  <GNINA pK>  (83) 
nan

$$$$
PXZVULLCMWPKNR-UHFFFAOYSA-N-P183-P126-P183-601502
     RDKit          3D

 24 26  0  0  0  0  0  0  0  0999 V2000
   11.3940   14.8199   18.3183 C   0  0  0  0  0  0  0  0  0  0  0  0
   10.6572   15.3425   19.4590 C   0  0  0  0  0  0  0  0  0  0  0  0
    9.5437   16.0953   19.2468 O   0  0  0  0  0  0  0  0  0  0  0  0
    9.1820   16.4778   20.5038 C   0  0  0  0  0  0  0  0  0  0  0  0
    9.9391   15.9965   21.4619 N   0  0  0  0  0  0  0  0  0  0  0  0
   10.9255   15.3231   20.8002 C   0  0  0  0  0  0  0  0  0  0  0  0
   12.1434   14.7816   21.4439 C   0  0  0  0  0  0  0  0  0  0  0  0
   12.0254   14.6264   22.9382 C   0  0  0  0  0  0  0  0  0  0  0  0
   11.0224   13.6774   23.2736 N   0  0  0  0  0  0  0  0  0  0  0  0
   10.0082   13.6684   24.4088 C   0  0  0  0  0  0  0  0  0  0  0  0
    9.7717   14.4711   25.2148 O   0  0  0  0  0  0  0  0  0  0  0  0
    9.2960   12.3975   24.3303 C   0  0  0  0  0  0  0  0  0  0  0  0
    9.7585   11.4071   23.5492 N   0  0  0  0  0  0  0  0  0  0  0  0
    9.0620   10.3163   23.9462 N   0  0  0  0  0  0  0  0  0  0  0  0
    9.4902    8.9918   23.4787 C   0  0  0  0  0  0  0  0  0  0  0  0
    8.7199    8.0248   24.0107 F   0  0  0  0  0  0  0  0  0  0  0  0
    9.4352    8.8781   22.1355 F   0  0  0  0  0  0  0  0  0  0  0  0
   10.7717    8.7286   23.8284 F   0  0  0  0  0  0  0  0  0  0  0  0
    8.0790   10.6313   24.8716 C   0  0  0  0  0  0  0  0  0  0  0  0
    7.1318    9.8756   25.5700 C   0  0  0  0  0  0  0  0  0  0  0  0
    6.2572   10.5285   26.4444 C   0  0  0  0  0  0  0  0  0  0  0  0
    6.3202   11.9037   26.6232 C   0  0  0  0  0  0  0  0  0  0  0  0
    7.2737   12.6551   25.9399 C   0  0  0  0  0  0  0  0  0  0  0  0
    8.1656   12.0047   25.0678 C   0  0  0  0  0  0  0  0  0  0  0  0
  1  2  1  0
  2  3  1  0
  3  4  1  0
  4  5  2  0
  5  6  1  0
  6  7  1  0
  7  8  1  0
  8  9  1  0
  9 10  1  0
 10 11  2  0
 10 12  1  0
 12 13  2  0
 13 14  1  0
 14 15  1  0
 15 16  1  0
 15 17  1  0
 15 18  1  0
 14 19  1  0
 19 20  2  0
 20 21  1  0
 21 22  2  0
 22 23  1  0
 23 24  2  0
  6  2  2  0
 24 12  1  0
 24 19  1  0
M  END
>  <energy_score>  (84) 
-35.121754

>  <fragmenstein_runtime>  (84) 
5.496853

>  <HIPPO Pose ID>  (84) 
503403

>  <fragmenstein_error>  (84) 


>  <alias>  (84) 
PXZVULLCMWPKNR-UHFFFAOYSA-N-P183-P126-P183-601502

>  <orig_smiles>  (84) 
Cc1ocnc1CCNC(=O)c1nn(C(F)(F)F)c2ccccc12

>  <smiles>  (84) 
Cc1ocnc1CCNC(=O)c1nn(C(F)(F)F)c2ccccc12

>  <inchikey>  (84) 
PXZVULLCMWPKNR-UHFFFAOYSA-N

>  <HIPPO Compound ID>  (84) 
289836

>  <fragmenstein_mode>  (84) 
expansion

>  <fragmenstein_outcome>  (84) 
acceptable

>  <distance_score>  (84) 
0.700209

>  <subsites>  (84) 
None

>  <scratch_subdir>  (84) 
/opt/xchem-fragalysis-2/maxwin/BulkDock/SCRATCH/601502/PXZVULLCMWPKNR-UHFFFAOYSA-N-P183-P126-P183-601502

>  <inspiration_score>  (84) 
None

>  <name>  (84) 
PXZVULLCMWPKNR-UHFFFAOYSA-N-P183-P126-P183-601502

>  <ref_mols>  (84) 
A2290a,A3436a

>  <ref_pdb>  (84) 
A0514a

>  <exports>  (84) 
['/opt/xchem-fragalysis-2/maxwin/openbind-hippo/a71ev2a/cycle_01/syndirella/elabs/openbind_a71ev2a_c1_elab_chemspace_filtered.sdf', '/opt/xchem-fragalysis-2/maxwin/BulkDock/OUTPUTS/a71ev2a_c1_elab_bulkdock_input_1GFT2LV.sdf', '/opt/xchem-fragalysis-2/maxwin/openbind-hippo/a71ev2a/cycle_01/syndirella/elabs/ASAP-0031281-001_elabs.sdf']

>  <Energy>  (84) 
148.807358

>  <tags>  (84) 
fragmenstein_placed,a71ev2a_c1_elab_bulkdock_input,BulkDock Fragalysis export,openbind_a71ev2a_c1_elabs_filtered

>  <GNINA pK>  (84) 
nan

$$$$
FJORHRSFVACLOE-UHFFFAOYSA-N-P126-P126-P183-601502
     RDKit          3D

 25 27  0  0  0  0  0  0  0  0999 V2000
   14.4833   11.9548   24.9606 C   0  0  0  0  0  0  0  0  0  0  0  0
   13.6548   12.5030   23.9122 O   0  0  0  0  0  0  0  0  0  0  0  0
   12.7220   13.4098   24.2749 C   0  0  0  0  0  0  0  0  0  0  0  0
   12.4886   13.6793   25.4554 O   0  0  0  0  0  0  0  0  0  0  0  0
   11.8740   14.0182   23.1532 C   0  0  1  0  0  0  0  0  0  0  0  0
   12.2788   14.0699   21.6918 C   0  0  0  0  0  0  0  0  0  0  0  0
   11.2302   14.7577   20.8687 C   0  0  0  0  0  0  0  0  0  0  0  0
   11.0046   14.7754   19.5118 C   0  0  0  0  0  0  0  0  0  0  0  0
    9.9605   15.6210   19.2594 O   0  0  0  0  0  0  0  0  0  0  0  0
    9.6144   16.0906   20.4821 C   0  0  0  0  0  0  0  0  0  0  0  0
   10.3088   15.5824   21.4704 N   0  0  0  0  0  0  0  0  0  0  0  0
   10.7297   13.2149   23.4127 N   0  0  0  0  0  0  0  0  0  0  0  0
    9.5789   13.4195   24.3825 C   0  0  0  0  0  0  0  0  0  0  0  0
    9.3299   14.3149   25.0781 O   0  0  0  0  0  0  0  0  0  0  0  0
    8.8354   12.1731   24.3668 C   0  0  0  0  0  0  0  0  0  0  0  0
    9.2810   11.1364   23.6268 N   0  0  0  0  0  0  0  0  0  0  0  0
    8.6147   10.0891   24.1190 N   0  0  0  0  0  0  0  0  0  0  0  0
    9.0068    8.7719   23.6861 C   0  0  0  0  0  0  0  0  0  0  0  0
    7.6944   10.4316   25.0794 C   0  0  0  0  0  0  0  0  0  0  0  0
    6.7747    9.6949   25.8174 C   0  0  0  0  0  0  0  0  0  0  0  0
    6.0083   10.3585   26.7774 C   0  0  0  0  0  0  0  0  0  0  0  0
    6.1545   11.7253   26.9831 C   0  0  0  0  0  0  0  0  0  0  0  0
    5.1033   12.5837   28.2999 Br  0  0  0  0  0  0  0  0  0  0  0  0
    7.0601   12.4687   26.2339 C   0  0  0  0  0  0  0  0  0  0  0  0
    7.8179   11.8024   25.2565 C   0  0  0  0  0  0  0  0  0  0  0  0
  1  2  1  0
  2  3  1  0
  3  4  2  0
  3  5  1  0
  5  6  1  6
  6  7  1  0
  7  8  2  0
  8  9  1  0
  9 10  1  0
 10 11  2  0
  5 12  1  0
 12 13  1  0
 13 14  2  0
 13 15  1  0
 15 16  2  0
 16 17  1  0
 17 18  1  0
 17 19  1  0
 19 20  2  0
 20 21  1  0
 21 22  2  0
 22 23  1  0
 22 24  1  0
 24 25  2  0
 11  7  1  0
 25 15  1  0
 25 19  1  0
M  END
>  <energy_score>  (85) 
-23.608087

>  <fragmenstein_runtime>  (85) 
5.540681

>  <HIPPO Pose ID>  (85) 
503404

>  <fragmenstein_error>  (85) 


>  <alias>  (85) 
FJORHRSFVACLOE-UHFFFAOYSA-N-P126-P126-P183-601502

>  <orig_smiles>  (85) 
COC(=O)C(Cc1cocn1)NC(=O)c1nn(C)c2ccc(Br)cc12

>  <smiles>  (85) 
COC(=O)C(Cc1cocn1)NC(=O)c1nn(C)c2ccc(Br)cc12

>  <inchikey>  (85) 
FJORHRSFVACLOE-UHFFFAOYSA-N

>  <HIPPO Compound ID>  (85) 
289837

>  <fragmenstein_mode>  (85) 
expansion

>  <fragmenstein_outcome>  (85) 
acceptable

>  <distance_score>  (85) 
0.961579

>  <subsites>  (85) 
None

>  <scratch_subdir>  (85) 
/opt/xchem-fragalysis-2/maxwin/BulkDock/SCRATCH/601502/FJORHRSFVACLOE-UHFFFAOYSA-N-P126-P126-P183-601502

>  <inspiration_score>  (85) 
None

>  <name>  (85) 
FJORHRSFVACLOE-UHFFFAOYSA-N-P126-P126-P183-601502

>  <ref_mols>  (85) 
A2290a,A3436a

>  <ref_pdb>  (85) 
A0514a

>  <exports>  (85) 
['/opt/xchem-fragalysis-2/maxwin/openbind-hippo/a71ev2a/cycle_01/bulkdock/openbind_a71ev2a_c1_elab_chemspace.sdf', '/opt/xchem-fragalysis-2/maxwin/openbind-hippo/a71ev2a/cycle_01/syndirella/elabs/openbind_a71ev2a_c1_elab_chemspace_filtered.sdf', '/opt/xchem-fragalysis-2/maxwin/BulkDock/OUTPUTS/a71ev2a_c1_elab_bulkdock_input_1GFT2LV.sdf', '/opt/xchem-fragalysis-2/maxwin/openbind-hippo/a71ev2a/cycle_01/syndirella/elabs/ASAP-0031281-001_elabs.sdf']

>  <Energy>  (85) 
99.895594

>  <tags>  (85) 
fragmenstein_placed,a71ev2a_c1_elab_bulkdock_input,BulkDock Fragalysis export,openbind_a71ev2a_c1_elabs_filtered

>  <GNINA pK>  (85) 
nan

$$$$
FJORHRSFVACLOE-UHFFFAOYSA-N-P183-P126-P183-601502
     RDKit          3D

 25 27  0  0  0  0  0  0  0  0999 V2000
   12.4758   13.3534   24.7923 C   0  0  0  0  0  0  0  0  0  0  0  0
   12.8493   13.4094   23.4266 O   0  0  0  0  0  0  0  0  0  0  0  0
   12.4345   14.4863   22.7181 C   0  0  0  0  0  0  0  0  0  0  0  0
   13.2149   15.3015   22.2506 O   0  0  0  0  0  0  0  0  0  0  0  0
   10.9729   14.5773   22.4363 C   0  0  1  0  0  0  0  0  0  0  0  0
   10.7824   14.4844   20.9465 C   0  0  0  0  0  0  0  0  0  0  0  0
   10.0460   15.6231   20.4190 C   0  0  0  0  0  0  0  0  0  0  0  0
   10.0297   16.0518   19.1297 C   0  0  0  0  0  0  0  0  0  0  0  0
    9.2399   17.1508   19.0791 O   0  0  0  0  0  0  0  0  0  0  0  0
    8.8183   17.3254   20.3572 C   0  0  0  0  0  0  0  0  0  0  0  0
    9.2156   16.3901   21.1835 N   0  0  0  0  0  0  0  0  0  0  0  0
   10.2084   13.5633   23.0733 N   0  0  0  0  0  0  0  0  0  0  0  0
    9.2895   13.6310   24.2746 C   0  0  0  0  0  0  0  0  0  0  0  0
    9.0580   14.5080   24.9961 O   0  0  0  0  0  0  0  0  0  0  0  0
    8.7781   12.2865   24.4466 C   0  0  0  0  0  0  0  0  0  0  0  0
    9.3079   11.2628   23.7474 N   0  0  0  0  0  0  0  0  0  0  0  0
    8.6630   10.1892   24.2148 N   0  0  0  0  0  0  0  0  0  0  0  0
    9.0702    8.8947   23.7208 C   0  0  0  0  0  0  0  0  0  0  0  0
    7.7015   10.5064   25.1472 C   0  0  0  0  0  0  0  0  0  0  0  0
    6.7492    9.7594   25.8317 C   0  0  0  0  0  0  0  0  0  0  0  0
    5.9142   10.4054   26.7471 C   0  0  0  0  0  0  0  0  0  0  0  0
    6.0002   11.7769   26.9406 C   0  0  0  0  0  0  0  0  0  0  0  0
    4.8467   12.6163   28.1795 Br  0  0  0  0  0  0  0  0  0  0  0  0
    6.9157   12.5383   26.2249 C   0  0  0  0  0  0  0  0  0  0  0  0
    7.7673   11.8806   25.3206 C   0  0  0  0  0  0  0  0  0  0  0  0
  1  2  1  0
  2  3  1  0
  3  4  2  0
  3  5  1  0
  5  6  1  6
  6  7  1  0
  7  8  2  0
  8  9  1  0
  9 10  1  0
 10 11  2  0
  5 12  1  0
 12 13  1  0
 13 14  2  0
 13 15  1  0
 15 16  2  0
 16 17  1  0
 17 18  1  0
 17 19  1  0
 19 20  2  0
 20 21  1  0
 21 22  2  0
 22 23  1  0
 22 24  1  0
 24 25  2  0
 11  7  1  0
 25 15  1  0
 25 19  1  0
M  END
>  <energy_score>  (86) 
-25.060345

>  <fragmenstein_runtime>  (86) 
4.311873

>  <HIPPO Pose ID>  (86) 
503405

>  <fragmenstein_error>  (86) 


>  <alias>  (86) 
FJORHRSFVACLOE-UHFFFAOYSA-N-P183-P126-P183-601502

>  <orig_smiles>  (86) 
COC(=O)C(Cc1cocn1)NC(=O)c1nn(C)c2ccc(Br)cc12

>  <smiles>  (86) 
COC(=O)C(Cc1cocn1)NC(=O)c1nn(C)c2ccc(Br)cc12

>  <inchikey>  (86) 
FJORHRSFVACLOE-UHFFFAOYSA-N

>  <HIPPO Compound ID>  (86) 
289837

>  <fragmenstein_mode>  (86) 
expansion

>  <fragmenstein_outcome>  (86) 
too moved

>  <distance_score>  (86) 
1.113422

>  <subsites>  (86) 
None

>  <scratch_subdir>  (86) 
/opt/xchem-fragalysis-2/maxwin/BulkDock/SCRATCH/601502/FJORHRSFVACLOE-UHFFFAOYSA-N-P183-P126-P183-601502

>  <inspiration_score>  (86) 
None

>  <name>  (86) 
FJORHRSFVACLOE-UHFFFAOYSA-N-P183-P126-P183-601502

>  <ref_mols>  (86) 
A2290a,A3436a

>  <ref_pdb>  (86) 
A0514a

>  <exports>  (86) 
['/opt/xchem-fragalysis-2/maxwin/openbind-hippo/a71ev2a/cycle_01/syndirella/elabs/openbind_a71ev2a_c1_elab_chemspace_filtered.sdf', '/opt/xchem-fragalysis-2/maxwin/openbind-hippo/a71ev2a/cycle_01/syndirella/elabs/ASAP-0031281-001_elabs.sdf']

>  <Energy>  (86) 
98.443337

>  <tags>  (86) 
fragmenstein_placed,openbind_a71ev2a_c1_elabs_filtered,a71ev2a_c1_elab_bulkdock_input

>  <GNINA pK>  (86) 
nan

$$$$
UNSHUWGXKVKHOR-UHFFFAOYSA-N-P126-P126-P183-601502
     RDKit          3D

 25 27  0  0  0  0  0  0  0  0999 V2000
    8.6054   17.3218   20.7366 C   0  0  0  0  0  0  0  0  0  0  0  0
    9.5706   16.2186   20.5976 C   0  0  0  0  0  0  0  0  0  0  0  0
   10.2425   15.6012   21.5495 N   0  0  0  0  0  0  0  0  0  0  0  0
   11.1685   14.8683   20.8771 C   0  0  0  0  0  0  0  0  0  0  0  0
   12.3740   14.2787   21.4901 C   0  0  0  0  0  0  0  0  0  0  0  0
   12.3095   14.1653   22.9855 C   0  0  0  0  0  0  0  0  0  0  0  0
   11.3630   13.2052   23.4270 N   0  0  0  0  0  0  0  0  0  0  0  0
   10.3368   13.2701   24.5516 C   0  0  0  0  0  0  0  0  0  0  0  0
   10.1470   14.0907   25.3535 O   0  0  0  0  0  0  0  0  0  0  0  0
    9.5538   12.0375   24.4761 C   0  0  0  0  0  0  0  0  0  0  0  0
    9.9409   11.0336   23.6678 N   0  0  0  0  0  0  0  0  0  0  0  0
    9.0917   10.0362   23.9465 N   0  0  0  0  0  0  0  0  0  0  0  0
    9.2578    8.7921   23.2334 C   0  0  0  0  0  0  0  0  0  0  0  0
    8.1552   10.3743   24.8959 C   0  0  0  0  0  0  0  0  0  0  0  0
    7.1261    9.6612   25.5092 C   0  0  0  0  0  0  0  0  0  0  0  0
    6.2943   10.3303   26.4099 C   0  0  0  0  0  0  0  0  0  0  0  0
    6.5053   11.6811   26.6911 C   0  0  0  0  0  0  0  0  0  0  0  0
    5.6174   12.3594   27.6341 N   0  0  0  0  0  0  0  0  0  0  0  0
    6.0823   13.3158   28.2703 O   0  0  0  0  0  0  0  0  0  0  0  0
    4.4686   11.9114   27.7672 O   0  0  0  0  0  0  0  0  0  0  0  0
    7.5642   12.3901   26.1151 C   0  0  0  0  0  0  0  0  0  0  0  0
    8.3949   11.7092   25.2063 C   0  0  0  0  0  0  0  0  0  0  0  0
   10.9240   14.9600   19.5370 C   0  0  0  0  0  0  0  0  0  0  0  0
   11.7059   14.4819   18.4093 C   0  0  0  0  0  0  0  0  0  0  0  0
    9.8831   15.8119   19.3321 O   0  0  0  0  0  0  0  0  0  0  0  0
  1  2  1  0
  2  3  2  0
  3  4  1  0
  4  5  1  0
  5  6  1  0
  6  7  1  0
  7  8  1  0
  8  9  2  0
  8 10  1  0
 10 11  2  0
 11 12  1  0
 12 13  1  0
 12 14  1  0
 14 15  2  0
 15 16  1  0
 16 17  2  0
 17 18  1  0
 18 19  2  0
 18 20  1  0
 17 21  1  0
 21 22  2  0
  4 23  2  0
 23 24  1  0
 23 25  1  0
 25  2  1  0
 22 10  1  0
 22 14  1  0
M  CHG  2  18   1  20  -1
M  END
>  <energy_score>  (87) 
-20.621045

>  <fragmenstein_runtime>  (87) 
4.576209

>  <HIPPO Pose ID>  (87) 
503406

>  <fragmenstein_error>  (87) 


>  <alias>  (87) 
UNSHUWGXKVKHOR-UHFFFAOYSA-N-P126-P126-P183-601502

>  <orig_smiles>  (87) 
Cc1nc(CCNC(=O)c2nn(C)c3ccc([N+](=O)[O-])cc23)c(C)o1

>  <smiles>  (87) 
Cc1nc(CCNC(=O)c2nn(C)c3ccc([N+](=O)[O-])cc23)c(C)o1

>  <inchikey>  (87) 
UNSHUWGXKVKHOR-UHFFFAOYSA-N

>  <HIPPO Compound ID>  (87) 
289838

>  <fragmenstein_mode>  (87) 
expansion

>  <fragmenstein_outcome>  (87) 
acceptable

>  <distance_score>  (87) 
0.706307

>  <subsites>  (87) 
None

>  <scratch_subdir>  (87) 
/opt/xchem-fragalysis-2/maxwin/BulkDock/SCRATCH/601502/UNSHUWGXKVKHOR-UHFFFAOYSA-N-P126-P126-P183-601502

>  <inspiration_score>  (87) 
None

>  <name>  (87) 
UNSHUWGXKVKHOR-UHFFFAOYSA-N-P126-P126-P183-601502

>  <ref_mols>  (87) 
A2290a,A3436a

>  <ref_pdb>  (87) 
A0514a

>  <exports>  (87) 
['/opt/xchem-fragalysis-2/maxwin/openbind-hippo/a71ev2a/cycle_01/syndirella/elabs/openbind_a71ev2a_c1_elab_chemspace_filtered.sdf', '/opt/xchem-fragalysis-2/maxwin/BulkDock/OUTPUTS/a71ev2a_c1_elab_bulkdock_input_1GFT2LV.sdf', '/opt/xchem-fragalysis-2/maxwin/openbind-hippo/a71ev2a/cycle_01/syndirella/elabs/ASAP-0031281-001_elabs.sdf']

>  <Energy>  (87) 
105.234702

>  <tags>  (87) 
fragmenstein_placed,a71ev2a_c1_elab_bulkdock_input,BulkDock Fragalysis export,openbind_a71ev2a_c1_elabs_filtered

>  <GNINA pK>  (87) 
nan

$$$$
UNSHUWGXKVKHOR-UHFFFAOYSA-N-P183-P126-P183-601502
     RDKit          3D

 25 27  0  0  0  0  0  0  0  0999 V2000
    8.4034   17.5157   20.6807 C   0  0  0  0  0  0  0  0  0  0  0  0
    9.4394   16.5052   20.5187 C   0  0  0  0  0  0  0  0  0  0  0  0
   10.1427   15.9290   21.4645 N   0  0  0  0  0  0  0  0  0  0  0  0
   11.0557   15.1927   20.7844 C   0  0  0  0  0  0  0  0  0  0  0  0
   12.2307   14.5918   21.4353 C   0  0  0  0  0  0  0  0  0  0  0  0
   12.1031   14.4842   22.9370 C   0  0  0  0  0  0  0  0  0  0  0  0
   11.1378   13.5096   23.3222 N   0  0  0  0  0  0  0  0  0  0  0  0
   10.0241   13.5750   24.3589 C   0  0  0  0  0  0  0  0  0  0  0  0
    9.7556   14.4059   25.1258 O   0  0  0  0  0  0  0  0  0  0  0  0
    9.2891   12.3111   24.2997 C   0  0  0  0  0  0  0  0  0  0  0  0
    9.7374   11.2771   23.5650 N   0  0  0  0  0  0  0  0  0  0  0  0
    8.9846   10.2400   23.9617 N   0  0  0  0  0  0  0  0  0  0  0  0
    9.3026    8.9348   23.4285 C   0  0  0  0  0  0  0  0  0  0  0  0
    8.0248   10.5915   24.8859 C   0  0  0  0  0  0  0  0  0  0  0  0
    7.0657    9.8614   25.5925 C   0  0  0  0  0  0  0  0  0  0  0  0
    6.1914   10.5456   26.4405 C   0  0  0  0  0  0  0  0  0  0  0  0
    6.2793   11.9322   26.5696 C   0  0  0  0  0  0  0  0  0  0  0  0
    5.3442   12.6270   27.4542 N   0  0  0  0  0  0  0  0  0  0  0  0
    5.7085   13.7078   27.9378 O   0  0  0  0  0  0  0  0  0  0  0  0
    4.2646   12.0688   27.7027 O   0  0  0  0  0  0  0  0  0  0  0  0
    7.2578   12.6649   25.8903 C   0  0  0  0  0  0  0  0  0  0  0  0
    8.1415   11.9677   25.0443 C   0  0  0  0  0  0  0  0  0  0  0  0
   10.7834   15.2631   19.4455 C   0  0  0  0  0  0  0  0  0  0  0  0
   11.4758   14.7525   18.2796 C   0  0  0  0  0  0  0  0  0  0  0  0
    9.7315   16.0995   19.2529 O   0  0  0  0  0  0  0  0  0  0  0  0
  1  2  1  0
  2  3  2  0
  3  4  1  0
  4  5  1  0
  5  6  1  0
  6  7  1  0
  7  8  1  0
  8  9  2  0
  8 10  1  0
 10 11  2  0
 11 12  1  0
 12 13  1  0
 12 14  1  0
 14 15  2  0
 15 16  1  0
 16 17  2  0
 17 18  1  0
 18 19  2  0
 18 20  1  0
 17 21  1  0
 21 22  2  0
  4 23  2  0
 23 24  1  0
 23 25  1  0
 25  2  1  0
 22 10  1  0
 22 14  1  0
M  CHG  2  18   1  20  -1
M  END
>  <energy_score>  (88) 
-21.745162

>  <fragmenstein_runtime>  (88) 
3.847161

>  <HIPPO Pose ID>  (88) 
503407

>  <fragmenstein_error>  (88) 


>  <alias>  (88) 
UNSHUWGXKVKHOR-UHFFFAOYSA-N-P183-P126-P183-601502

>  <orig_smiles>  (88) 
Cc1nc(CCNC(=O)c2nn(C)c3ccc([N+](=O)[O-])cc23)c(C)o1

>  <smiles>  (88) 
Cc1nc(CCNC(=O)c2nn(C)c3ccc([N+](=O)[O-])cc23)c(C)o1

>  <inchikey>  (88) 
UNSHUWGXKVKHOR-UHFFFAOYSA-N

>  <HIPPO Compound ID>  (88) 
289838

>  <fragmenstein_mode>  (88) 
expansion

>  <fragmenstein_outcome>  (88) 
acceptable

>  <distance_score>  (88) 
0.673091

>  <subsites>  (88) 
None

>  <scratch_subdir>  (88) 
/opt/xchem-fragalysis-2/maxwin/BulkDock/SCRATCH/601502/UNSHUWGXKVKHOR-UHFFFAOYSA-N-P183-P126-P183-601502

>  <inspiration_score>  (88) 
None

>  <name>  (88) 
UNSHUWGXKVKHOR-UHFFFAOYSA-N-P183-P126-P183-601502

>  <ref_mols>  (88) 
A2290a,A3436a

>  <ref_pdb>  (88) 
A0514a

>  <exports>  (88) 
['/opt/xchem-fragalysis-2/maxwin/openbind-hippo/a71ev2a/cycle_01/bulkdock/openbind_a71ev2a_c1_elab_chemspace.sdf', '/opt/xchem-fragalysis-2/maxwin/openbind-hippo/a71ev2a/cycle_01/syndirella/elabs/openbind_a71ev2a_c1_elab_chemspace_filtered.sdf', '/opt/xchem-fragalysis-2/maxwin/BulkDock/OUTPUTS/a71ev2a_c1_elab_bulkdock_input_1GFT2LV.sdf', '/opt/xchem-fragalysis-2/maxwin/openbind-hippo/a71ev2a/cycle_01/syndirella/elabs/ASAP-0031281-001_elabs.sdf']

>  <Energy>  (88) 
104.110586

>  <tags>  (88) 
fragmenstein_placed,a71ev2a_c1_elab_bulkdock_input,BulkDock Fragalysis export,openbind_a71ev2a_c1_elabs_filtered

>  <GNINA pK>  (88) 
nan

$$$$
DYQHBGIEJPRWRT-UHFFFAOYSA-N-P126-P126-P183-601502
     RDKit          3D

 25 27  0  0  0  0  0  0  0  0999 V2000
    3.7595   12.8217   28.7587 C   0  0  0  0  0  0  0  0  0  0  0  0
    4.5985   12.1121   27.8466 O   0  0  0  0  0  0  0  0  0  0  0  0
    5.8415   12.6441   27.7254 C   0  0  0  0  0  0  0  0  0  0  0  0
    6.2732   13.6136   28.3277 O   0  0  0  0  0  0  0  0  0  0  0  0
    6.6343   11.8766   26.7350 C   0  0  0  0  0  0  0  0  0  0  0  0
    6.3787   10.5265   26.4827 C   0  0  0  0  0  0  0  0  0  0  0  0
    7.1530    9.8074   25.5681 C   0  0  0  0  0  0  0  0  0  0  0  0
    8.1825   10.4780   24.9028 C   0  0  0  0  0  0  0  0  0  0  0  0
    8.4686   11.8154   25.1530 C   0  0  0  0  0  0  0  0  0  0  0  0
    7.6917   12.5295   26.0850 C   0  0  0  0  0  0  0  0  0  0  0  0
    9.6080   12.0962   24.3585 C   0  0  0  0  0  0  0  0  0  0  0  0
   10.4375   13.3077   24.3743 C   0  0  0  0  0  0  0  0  0  0  0  0
   10.3311   14.1126   25.2087 O   0  0  0  0  0  0  0  0  0  0  0  0
   11.3844   13.2414   23.1748 N   0  0  0  0  0  0  0  0  0  0  0  0
   12.3360   14.1900   22.6894 C   0  0  0  0  0  0  0  0  0  0  0  0
   12.3695   14.3043   21.1811 C   0  0  0  0  0  0  0  0  0  0  0  0
   11.1499   14.9118   20.6111 C   0  0  0  0  0  0  0  0  0  0  0  0
   10.7644   14.9861   19.2982 C   0  0  0  0  0  0  0  0  0  0  0  0
    9.7375   15.8746   19.2030 O   0  0  0  0  0  0  0  0  0  0  0  0
    9.5602   16.3035   20.4848 C   0  0  0  0  0  0  0  0  0  0  0  0
    8.5944   17.3900   20.7135 C   0  0  0  0  0  0  0  0  0  0  0  0
   10.3188   15.6909   21.3667 N   0  0  0  0  0  0  0  0  0  0  0  0
    9.9267   11.0558   23.5655 N   0  0  0  0  0  0  0  0  0  0  0  0
    9.1089   10.0759   23.9716 N   0  0  0  0  0  0  0  0  0  0  0  0
    9.3594    8.7384   23.4991 C   0  0  0  0  0  0  0  0  0  0  0  0
  1  2  1  0
  2  3  1  0
  3  4  2  0
  3  5  1  0
  5  6  2  0
  6  7  1  0
  7  8  2  0
  8  9  1  0
  9 10  2  0
  9 11  1  0
 11 12  1  0
 12 13  2  0
 12 14  1  0
 14 15  1  0
 15 16  1  0
 16 17  1  0
 17 18  2  0
 18 19  1  0
 19 20  1  0
 20 21  1  0
 20 22  2  0
 11 23  2  0
 23 24  1  0
 24 25  1  0
 10  5  1  0
 22 17  1  0
 24  8  1  0
M  END
>  <energy_score>  (89) 
-38.673622

>  <fragmenstein_runtime>  (89) 
5.815655

>  <HIPPO Pose ID>  (89) 
503408

>  <fragmenstein_error>  (89) 


>  <alias>  (89) 
DYQHBGIEJPRWRT-UHFFFAOYSA-N-P126-P126-P183-601502

>  <orig_smiles>  (89) 
COC(=O)c1ccc2c(c1)c(C(=O)NCCc1coc(C)n1)nn2C

>  <smiles>  (89) 
COC(=O)c1ccc2c(c1)c(C(=O)NCCc1coc(C)n1)nn2C

>  <inchikey>  (89) 
DYQHBGIEJPRWRT-UHFFFAOYSA-N

>  <HIPPO Compound ID>  (89) 
289839

>  <fragmenstein_mode>  (89) 
expansion

>  <fragmenstein_outcome>  (89) 
acceptable

>  <distance_score>  (89) 
0.575434

>  <subsites>  (89) 
None

>  <scratch_subdir>  (89) 
/opt/xchem-fragalysis-2/maxwin/BulkDock/SCRATCH/601502/DYQHBGIEJPRWRT-UHFFFAOYSA-N-P126-P126-P183-601502

>  <inspiration_score>  (89) 
None

>  <name>  (89) 
DYQHBGIEJPRWRT-UHFFFAOYSA-N-P126-P126-P183-601502

>  <ref_mols>  (89) 
A2290a,A3436a

>  <ref_pdb>  (89) 
A0514a

>  <exports>  (89) 
['/opt/xchem-fragalysis-2/maxwin/openbind-hippo/a71ev2a/cycle_01/syndirella/elabs/openbind_a71ev2a_c1_elab_chemspace_filtered.sdf', '/opt/xchem-fragalysis-2/maxwin/BulkDock/OUTPUTS/a71ev2a_c1_elab_bulkdock_input_1GFT2LV.sdf', '/opt/xchem-fragalysis-2/maxwin/openbind-hippo/a71ev2a/cycle_01/syndirella/elabs/ASAP-0031281-001_elabs.sdf']

>  <Energy>  (89) 
84.549038

>  <tags>  (89) 
fragmenstein_placed,a71ev2a_c1_elab_bulkdock_input,BulkDock Fragalysis export,openbind_a71ev2a_c1_elabs_filtered

>  <GNINA pK>  (89) 
nan

$$$$
DYQHBGIEJPRWRT-UHFFFAOYSA-N-P183-P126-P183-601502
     RDKit          3D

 25 27  0  0  0  0  0  0  0  0999 V2000
    3.4178   12.8490   28.5005 C   0  0  0  0  0  0  0  0  0  0  0  0
    4.3332   12.1447   27.6606 O   0  0  0  0  0  0  0  0  0  0  0  0
    5.5016   12.8051   27.4564 C   0  0  0  0  0  0  0  0  0  0  0  0
    5.8161   13.8791   27.9423 O   0  0  0  0  0  0  0  0  0  0  0  0
    6.3782   12.0311   26.5443 C   0  0  0  0  0  0  0  0  0  0  0  0
    6.2693   10.6445   26.4259 C   0  0  0  0  0  0  0  0  0  0  0  0
    7.1180    9.9272   25.5765 C   0  0  0  0  0  0  0  0  0  0  0  0
    8.0793   10.6273   24.8413 C   0  0  0  0  0  0  0  0  0  0  0  0
    8.2264   12.0036   24.9730 C   0  0  0  0  0  0  0  0  0  0  0  0
    7.3682   12.7205   25.8304 C   0  0  0  0  0  0  0  0  0  0  0  0
    9.3629   12.3183   24.1909 C   0  0  0  0  0  0  0  0  0  0  0  0
   10.1266   13.5718   24.1995 C   0  0  0  0  0  0  0  0  0  0  0  0
    9.9739   14.3667   25.0348 O   0  0  0  0  0  0  0  0  0  0  0  0
   11.1264   13.5266   23.0462 N   0  0  0  0  0  0  0  0  0  0  0  0
   12.0904   14.4898   22.6135 C   0  0  0  0  0  0  0  0  0  0  0  0
   12.2276   14.5500   21.1017 C   0  0  0  0  0  0  0  0  0  0  0  0
   11.0670   15.1719   20.4433 C   0  0  0  0  0  0  0  0  0  0  0  0
   10.6934   15.1714   19.1225 C   0  0  0  0  0  0  0  0  0  0  0  0
    9.6675   16.0565   18.9775 O   0  0  0  0  0  0  0  0  0  0  0  0
    9.4899   16.5539   20.2353 C   0  0  0  0  0  0  0  0  0  0  0  0
    8.4774   17.5889   20.4366 C   0  0  0  0  0  0  0  0  0  0  0  0
   10.2580   16.0147   21.1474 N   0  0  0  0  0  0  0  0  0  0  0  0
    9.7743   11.2601   23.4682 N   0  0  0  0  0  0  0  0  0  0  0  0
    9.0254   10.2417   23.9186 N   0  0  0  0  0  0  0  0  0  0  0  0
    9.3321    8.9155   23.4348 C   0  0  0  0  0  0  0  0  0  0  0  0
  1  2  1  0
  2  3  1  0
  3  4  2  0
  3  5  1  0
  5  6  2  0
  6  7  1  0
  7  8  2  0
  8  9  1  0
  9 10  2  0
  9 11  1  0
 11 12  1  0
 12 13  2  0
 12 14  1  0
 14 15  1  0
 15 16  1  0
 16 17  1  0
 17 18  2  0
 18 19  1  0
 19 20  1  0
 20 21  1  0
 20 22  2  0
 11 23  2  0
 23 24  1  0
 24 25  1  0
 10  5  1  0
 22 17  1  0
 24  8  1  0
M  END
>  <energy_score>  (90) 
-38.70724

>  <fragmenstein_runtime>  (90) 
4.324874

>  <HIPPO Pose ID>  (90) 
503409

>  <fragmenstein_error>  (90) 


>  <alias>  (90) 
DYQHBGIEJPRWRT-UHFFFAOYSA-N-P183-P126-P183-601502

>  <orig_smiles>  (90) 
COC(=O)c1ccc2c(c1)c(C(=O)NCCc1coc(C)n1)nn2C

>  <smiles>  (90) 
COC(=O)c1ccc2c(c1)c(C(=O)NCCc1coc(C)n1)nn2C

>  <inchikey>  (90) 
DYQHBGIEJPRWRT-UHFFFAOYSA-N

>  <HIPPO Compound ID>  (90) 
289839

>  <fragmenstein_mode>  (90) 
expansion

>  <fragmenstein_outcome>  (90) 
acceptable

>  <distance_score>  (90) 
0.550729

>  <subsites>  (90) 
None

>  <scratch_subdir>  (90) 
/opt/xchem-fragalysis-2/maxwin/BulkDock/SCRATCH/601502/DYQHBGIEJPRWRT-UHFFFAOYSA-N-P183-P126-P183-601502

>  <inspiration_score>  (90) 
None

>  <name>  (90) 
DYQHBGIEJPRWRT-UHFFFAOYSA-N-P183-P126-P183-601502

>  <ref_mols>  (90) 
A2290a,A3436a

>  <ref_pdb>  (90) 
A0514a

>  <exports>  (90) 
['/opt/xchem-fragalysis-2/maxwin/openbind-hippo/a71ev2a/cycle_01/syndirella/elabs/openbind_a71ev2a_c1_elab_chemspace_filtered.sdf', '/opt/xchem-fragalysis-2/maxwin/BulkDock/OUTPUTS/a71ev2a_c1_elab_bulkdock_input_1GFT2LV.sdf', '/opt/xchem-fragalysis-2/maxwin/openbind-hippo/a71ev2a/cycle_01/syndirella/elabs/ASAP-0031281-001_elabs.sdf']

>  <Energy>  (90) 
84.51542

>  <tags>  (90) 
fragmenstein_placed,a71ev2a_c1_elab_bulkdock_input,BulkDock Fragalysis export,openbind_a71ev2a_c1_elabs_filtered

>  <GNINA pK>  (90) 
nan

$$$$
UMGSEODYFWYKOA-UHFFFAOYSA-N-P126-P126-P183-601502
     RDKit          3D

 25 27  0  0  0  0  0  0  0  0999 V2000
    4.1470   13.4033   28.9555 C   0  0  0  0  0  0  0  0  0  0  0  0
    4.8592   12.5816   28.0296 O   0  0  0  0  0  0  0  0  0  0  0  0
    6.1293   13.0001   27.7977 C   0  0  0  0  0  0  0  0  0  0  0  0
    6.6844   13.9502   28.3254 O   0  0  0  0  0  0  0  0  0  0  0  0
    6.7823   12.1292   26.7907 C   0  0  0  0  0  0  0  0  0  0  0  0
    6.3977   10.7950   26.6172 C   0  0  0  0  0  0  0  0  0  0  0  0
    7.0503    9.9702   25.6967 C   0  0  0  0  0  0  0  0  0  0  0  0
    8.0879   10.5283   24.9440 C   0  0  0  0  0  0  0  0  0  0  0  0
    8.4942   11.8521   25.1029 C   0  0  0  0  0  0  0  0  0  0  0  0
    7.8425   12.6668   26.0454 C   0  0  0  0  0  0  0  0  0  0  0  0
    9.5904   12.0003   24.2199 C   0  0  0  0  0  0  0  0  0  0  0  0
   10.5539   13.0994   24.0912 C   0  0  0  0  0  0  0  0  0  0  0  0
   10.6481   13.9612   24.8692 O   0  0  0  0  0  0  0  0  0  0  0  0
   11.3930   12.7869   22.8484 N   0  0  0  0  0  0  0  0  0  0  0  0
   12.4557   13.5090   22.2480 C   0  0  0  0  0  0  0  0  0  0  0  0
   12.1395   14.9291   21.8879 C   0  0  0  0  0  0  0  0  0  0  0  0
   10.9632   15.1316   21.0225 C   0  0  0  0  0  0  0  0  0  0  0  0
    9.8739   15.7799   21.5095 N   0  0  0  0  0  0  0  0  0  0  0  0
    9.2852   16.2533   20.4439 C   0  0  0  0  0  0  0  0  0  0  0  0
    9.7532   15.7492   19.2746 O   0  0  0  0  0  0  0  0  0  0  0  0
   10.8351   15.0064   19.6624 C   0  0  0  0  0  0  0  0  0  0  0  0
   11.6986   14.4621   18.6200 C   0  0  0  0  0  0  0  0  0  0  0  0
    9.7550   10.9032   23.4585 N   0  0  0  0  0  0  0  0  0  0  0  0
    8.9249   10.0087   23.9886 N   0  0  0  0  0  0  0  0  0  0  0  0
    9.0790    8.6345   23.5959 C   0  0  0  0  0  0  0  0  0  0  0  0
  1  2  1  0
  2  3  1  0
  3  4  2  0
  3  5  1  0
  5  6  2  0
  6  7  1  0
  7  8  2  0
  8  9  1  0
  9 10  2  0
  9 11  1  0
 11 12  1  0
 12 13  2  0
 12 14  1  0
 14 15  1  0
 15 16  1  0
 16 17  1  0
 17 18  1  0
 18 19  2  0
 19 20  1  0
 20 21  1  0
 21 22  1  0
 11 23  2  0
 23 24  1  0
 24 25  1  0
 10  5  1  0
 21 17  2  0
 24  8  1  0
M  END
>  <energy_score>  (91) 
-9.109688

>  <fragmenstein_runtime>  (91) 
4.373215

>  <HIPPO Pose ID>  (91) 
503410

>  <fragmenstein_error>  (91) 


>  <alias>  (91) 
UMGSEODYFWYKOA-UHFFFAOYSA-N-P126-P126-P183-601502

>  <orig_smiles>  (91) 
COC(=O)c1ccc2c(c1)c(C(=O)NCCc1ncoc1C)nn2C

>  <smiles>  (91) 
COC(=O)c1ccc2c(c1)c(C(=O)NCCc1ncoc1C)nn2C

>  <inchikey>  (91) 
UMGSEODYFWYKOA-UHFFFAOYSA-N

>  <HIPPO Compound ID>  (91) 
289840

>  <fragmenstein_mode>  (91) 
expansion

>  <fragmenstein_outcome>  (91) 
acceptable

>  <distance_score>  (91) 
0.588827

>  <subsites>  (91) 
None

>  <scratch_subdir>  (91) 
/opt/xchem-fragalysis-2/maxwin/BulkDock/SCRATCH/601502/UMGSEODYFWYKOA-UHFFFAOYSA-N-P126-P126-P183-601502

>  <inspiration_score>  (91) 
None

>  <name>  (91) 
UMGSEODYFWYKOA-UHFFFAOYSA-N-P126-P126-P183-601502

>  <ref_mols>  (91) 
A2290a,A3436a

>  <ref_pdb>  (91) 
A0514a

>  <exports>  (91) 
['/opt/xchem-fragalysis-2/maxwin/openbind-hippo/a71ev2a/cycle_01/bulkdock/openbind_a71ev2a_c1_elab_chemspace.sdf', '/opt/xchem-fragalysis-2/maxwin/openbind-hippo/a71ev2a/cycle_01/syndirella/elabs/openbind_a71ev2a_c1_elab_chemspace_filtered.sdf', '/opt/xchem-fragalysis-2/maxwin/BulkDock/OUTPUTS/a71ev2a_c1_elab_bulkdock_input_1GFT2LV.sdf', '/opt/xchem-fragalysis-2/maxwin/openbind-hippo/a71ev2a/cycle_01/syndirella/elabs/ASAP-0031281-001_elabs.sdf']

>  <Energy>  (91) 
89.024523

>  <tags>  (91) 
fragmenstein_placed,a71ev2a_c1_elab_bulkdock_input,BulkDock Fragalysis export,openbind_a71ev2a_c1_elabs_filtered

>  <GNINA pK>  (91) 
nan

$$$$
UMGSEODYFWYKOA-UHFFFAOYSA-N-P183-P126-P183-601502
     RDKit          3D

 25 27  0  0  0  0  0  0  0  0999 V2000
    3.2717   12.5385   28.6646 C   0  0  0  0  0  0  0  0  0  0  0  0
    4.1997   11.8926   27.7918 O   0  0  0  0  0  0  0  0  0  0  0  0
    5.3450   12.5968   27.6005 C   0  0  0  0  0  0  0  0  0  0  0  0
    5.6262   13.6646   28.1189 O   0  0  0  0  0  0  0  0  0  0  0  0
    6.2404   11.8803   26.6595 C   0  0  0  0  0  0  0  0  0  0  0  0
    6.1661   10.4984   26.4826 C   0  0  0  0  0  0  0  0  0  0  0  0
    7.0361    9.8368   25.6090 C   0  0  0  0  0  0  0  0  0  0  0  0
    7.9895   10.5829   24.9136 C   0  0  0  0  0  0  0  0  0  0  0  0
    8.0969   11.9550   25.1016 C   0  0  0  0  0  0  0  0  0  0  0  0
    7.2160   12.6188   25.9785 C   0  0  0  0  0  0  0  0  0  0  0  0
    9.2324   12.3257   24.3508 C   0  0  0  0  0  0  0  0  0  0  0  0
    9.9555   13.5971   24.4188 C   0  0  0  0  0  0  0  0  0  0  0  0
    9.7252   14.3939   25.2330 O   0  0  0  0  0  0  0  0  0  0  0  0
   11.0339   13.5664   23.3428 N   0  0  0  0  0  0  0  0  0  0  0  0
   12.0003   14.5444   22.9725 C   0  0  0  0  0  0  0  0  0  0  0  0
   12.1032   14.6960   21.4755 C   0  0  0  0  0  0  0  0  0  0  0  0
   10.8965   15.2645   20.8361 C   0  0  0  0  0  0  0  0  0  0  0  0
    9.9054   15.9215   21.5074 N   0  0  0  0  0  0  0  0  0  0  0  0
    9.1669   16.4428   20.5549 C   0  0  0  0  0  0  0  0  0  0  0  0
    9.5411   16.0979   19.2908 O   0  0  0  0  0  0  0  0  0  0  0  0
   10.6461   15.3297   19.4920 C   0  0  0  0  0  0  0  0  0  0  0  0
   11.3887   14.8364   18.3407 C   0  0  0  0  0  0  0  0  0  0  0  0
    9.6889   11.3075   23.5970 N   0  0  0  0  0  0  0  0  0  0  0  0
    8.9547   10.2546   23.9870 N   0  0  0  0  0  0  0  0  0  0  0  0
    9.2981    8.9582   23.4467 C   0  0  0  0  0  0  0  0  0  0  0  0
  1  2  1  0
  2  3  1  0
  3  4  2  0
  3  5  1  0
  5  6  2  0
  6  7  1  0
  7  8  2  0
  8  9  1  0
  9 10  2  0
  9 11  1  0
 11 12  1  0
 12 13  2  0
 12 14  1  0
 14 15  1  0
 15 16  1  0
 16 17  1  0
 17 18  1  0
 18 19  2  0
 19 20  1  0
 20 21  1  0
 21 22  1  0
 11 23  2  0
 23 24  1  0
 24 25  1  0
 10  5  1  0
 21 17  2  0
 24  8  1  0
M  END
>  <energy_score>  (92) 
-12.656064

>  <fragmenstein_runtime>  (92) 
4.397768

>  <HIPPO Pose ID>  (92) 
503411

>  <fragmenstein_error>  (92) 


>  <alias>  (92) 
UMGSEODYFWYKOA-UHFFFAOYSA-N-P183-P126-P183-601502

>  <orig_smiles>  (92) 
COC(=O)c1ccc2c(c1)c(C(=O)NCCc1ncoc1C)nn2C

>  <smiles>  (92) 
COC(=O)c1ccc2c(c1)c(C(=O)NCCc1ncoc1C)nn2C

>  <inchikey>  (92) 
UMGSEODYFWYKOA-UHFFFAOYSA-N

>  <HIPPO Compound ID>  (92) 
289840

>  <fragmenstein_mode>  (92) 
expansion

>  <fragmenstein_outcome>  (92) 
acceptable

>  <distance_score>  (92) 
0.727362

>  <subsites>  (92) 
None

>  <scratch_subdir>  (92) 
/opt/xchem-fragalysis-2/maxwin/BulkDock/SCRATCH/601502/UMGSEODYFWYKOA-UHFFFAOYSA-N-P183-P126-P183-601502

>  <inspiration_score>  (92) 
None

>  <name>  (92) 
UMGSEODYFWYKOA-UHFFFAOYSA-N-P183-P126-P183-601502

>  <ref_mols>  (92) 
A2290a,A3436a

>  <ref_pdb>  (92) 
A0514a

>  <exports>  (92) 
['/opt/xchem-fragalysis-2/maxwin/openbind-hippo/a71ev2a/cycle_01/syndirella/elabs/openbind_a71ev2a_c1_elab_chemspace_filtered.sdf', '/opt/xchem-fragalysis-2/maxwin/BulkDock/OUTPUTS/a71ev2a_c1_elab_bulkdock_input_1GFT2LV.sdf', '/opt/xchem-fragalysis-2/maxwin/openbind-hippo/a71ev2a/cycle_01/syndirella/elabs/ASAP-0031281-001_elabs.sdf']

>  <Energy>  (92) 
85.478147

>  <tags>  (92) 
fragmenstein_placed,a71ev2a_c1_elab_bulkdock_input,BulkDock Fragalysis export,openbind_a71ev2a_c1_elabs_filtered

>  <GNINA pK>  (92) 
nan

$$$$
IYLAFSLXRPFYJV-UHFFFAOYSA-N-P126-P126-P183-601502
     RDKit          3D

 25 27  0  0  0  0  0  0  0  0999 V2000
    7.4207   16.0753   30.1767 C   0  0  0  0  0  0  0  0  0  0  0  0
    7.6554   15.4752   28.9046 O   0  0  0  0  0  0  0  0  0  0  0  0
    7.2619   14.1677   28.8148 C   0  0  0  0  0  0  0  0  0  0  0  0
    6.7956   13.5299   29.7549 O   0  0  0  0  0  0  0  0  0  0  0  0
    7.4768   13.5941   27.4798 C   0  0  0  0  0  0  0  0  0  0  0  0
    8.0430   14.2822   26.4671 N   0  0  0  0  0  0  0  0  0  0  0  0
    7.8531   13.4662   25.4058 N   0  0  0  0  0  0  0  0  0  0  0  0
    7.6141   14.0721   24.1195 C   0  0  0  0  0  0  0  0  0  0  0  0
    8.6587   13.6562   23.1379 C   0  0  0  0  0  0  0  0  0  0  0  0
    8.3909   13.1818   22.1041 O   0  0  0  0  0  0  0  0  0  0  0  0
   10.0374   14.0738   23.7294 N   0  0  0  0  0  0  0  0  0  0  0  0
   11.3595   14.0795   23.1268 C   0  0  1  0  0  0  0  0  0  0  0  0
   12.1902   13.0238   23.8433 C   0  0  0  0  0  0  0  0  0  0  0  0
   11.3781   13.8813   21.6137 C   0  0  0  0  0  0  0  0  0  0  0  0
   10.6755   14.9030   20.7966 C   0  0  0  0  0  0  0  0  0  0  0  0
   10.6534   15.0545   19.4306 C   0  0  0  0  0  0  0  0  0  0  0  0
    9.8339   16.1012   19.1271 O   0  0  0  0  0  0  0  0  0  0  0  0
    9.4140   16.5453   20.3373 C   0  0  0  0  0  0  0  0  0  0  0  0
    9.8693   15.8572   21.3556 N   0  0  0  0  0  0  0  0  0  0  0  0
    7.6475   12.1610   25.7510 C   0  0  0  0  0  0  0  0  0  0  0  0
    7.7017   10.9673   25.0336 C   0  0  0  0  0  0  0  0  0  0  0  0
    7.1346    9.8561   25.6505 C   0  0  0  0  0  0  0  0  0  0  0  0
    6.5249    9.9551   26.9003 C   0  0  0  0  0  0  0  0  0  0  0  0
    6.5645   11.1418   27.6332 C   0  0  0  0  0  0  0  0  0  0  0  0
    7.1722   12.2626   27.0571 C   0  0  0  0  0  0  0  0  0  0  0  0
  1  2  1  0
  2  3  1  0
  3  4  2  0
  3  5  1  0
  5  6  2  0
  6  7  1  0
  7  8  1  0
  8  9  1  0
  9 10  2  0
  9 11  1  0
 11 12  1  0
 12 13  1  1
 12 14  1  0
 14 15  1  0
 15 16  2  0
 16 17  1  0
 17 18  1  0
 18 19  2  0
  7 20  1  0
 20 21  2  0
 21 22  1  0
 22 23  2  0
 23 24  1  0
 24 25  2  0
 25  5  1  0
 19 15  1  0
 25 20  1  0
M  END
>  <energy_score>  (93) 
-11.763431

>  <fragmenstein_runtime>  (93) 
14.000189

>  <HIPPO Pose ID>  (93) 
503412

>  <fragmenstein_error>  (93) 


>  <alias>  (93) 
IYLAFSLXRPFYJV-UHFFFAOYSA-N-P126-P126-P183-601502

>  <orig_smiles>  (93) 
COC(=O)c1nn(CC(=O)NC(C)Cc2cocn2)c2ccccc12

>  <smiles>  (93) 
COC(=O)c1nn(CC(=O)NC(C)Cc2cocn2)c2ccccc12

>  <inchikey>  (93) 
IYLAFSLXRPFYJV-UHFFFAOYSA-N

>  <HIPPO Compound ID>  (93) 
289841

>  <fragmenstein_mode>  (93) 
expansion

>  <fragmenstein_outcome>  (93) 
too moved

>  <distance_score>  (93) 
2.834046

>  <subsites>  (93) 
None

>  <scratch_subdir>  (93) 
/opt/xchem-fragalysis-2/maxwin/BulkDock/SCRATCH/601502/IYLAFSLXRPFYJV-UHFFFAOYSA-N-P126-P126-P183-601502

>  <inspiration_score>  (93) 
None

>  <name>  (93) 
IYLAFSLXRPFYJV-UHFFFAOYSA-N-P126-P126-P183-601502

>  <ref_mols>  (93) 
A2290a,A3436a

>  <ref_pdb>  (93) 
A0514a

>  <exports>  (93) 
['/opt/xchem-fragalysis-2/maxwin/openbind-hippo/a71ev2a/cycle_01/syndirella/elabs/ASAP-0031281-001_elabs.sdf']

>  <Energy>  (93) 
106.575194

>  <tags>  (93) 
fragmenstein_placed,a71ev2a_c1_elab_bulkdock_input

>  <GNINA pK>  (93) 
nan

$$$$
IYLAFSLXRPFYJV-UHFFFAOYSA-N-P183-P126-P183-601502
     RDKit          3D

 25 27  0  0  0  0  0  0  0  0999 V2000
    5.3601   16.6169   26.4716 C   0  0  0  0  0  0  0  0  0  0  0  0
    5.2941   15.9253   27.7261 O   0  0  0  0  0  0  0  0  0  0  0  0
    5.4544   14.5665   27.8101 C   0  0  0  0  0  0  0  0  0  0  0  0
    4.9794   13.9739   28.7791 O   0  0  0  0  0  0  0  0  0  0  0  0
    6.2279   13.8471   26.7747 C   0  0  0  0  0  0  0  0  0  0  0  0
    7.0187   14.4373   25.8587 N   0  0  0  0  0  0  0  0  0  0  0  0
    7.4683   13.4138   25.1025 N   0  0  0  0  0  0  0  0  0  0  0  0
    8.1417   13.7033   23.8661 C   0  0  0  0  0  0  0  0  0  0  0  0
    9.6226   13.5114   24.0657 C   0  0  0  0  0  0  0  0  0  0  0  0
   10.0860   12.7490   24.8137 O   0  0  0  0  0  0  0  0  0  0  0  0
   10.2998   14.5211   23.1238 N   0  0  0  0  0  0  0  0  0  0  0  0
   11.6831   14.7394   22.8353 C   0  0  1  0  0  0  0  0  0  0  0  0
   12.5316   13.8737   23.7388 C   0  0  0  0  0  0  0  0  0  0  0  0
   11.9514   14.5760   21.3335 C   0  0  0  0  0  0  0  0  0  0  0  0
   10.9180   15.2503   20.4888 C   0  0  0  0  0  0  0  0  0  0  0  0
   10.7091   15.1918   19.1328 C   0  0  0  0  0  0  0  0  0  0  0  0
    9.7004   16.0564   18.8244 O   0  0  0  0  0  0  0  0  0  0  0  0
    9.3561   16.6146   20.0140 C   0  0  0  0  0  0  0  0  0  0  0  0
   10.0022   16.1278   21.0435 N   0  0  0  0  0  0  0  0  0  0  0  0
    7.1777   12.1760   25.5887 C   0  0  0  0  0  0  0  0  0  0  0  0
    7.5637   10.9026   25.1793 C   0  0  0  0  0  0  0  0  0  0  0  0
    6.9013    9.8484   25.7893 C   0  0  0  0  0  0  0  0  0  0  0  0
    5.9657   10.0559   26.8015 C   0  0  0  0  0  0  0  0  0  0  0  0
    5.6809   11.3370   27.2639 C   0  0  0  0  0  0  0  0  0  0  0  0
    6.2886   12.4254   26.6292 C   0  0  0  0  0  0  0  0  0  0  0  0
  1  2  1  0
  2  3  1  0
  3  4  2  0
  3  5  1  0
  5  6  2  0
  6  7  1  0
  7  8  1  0
  8  9  1  0
  9 10  2  0
  9 11  1  0
 11 12  1  0
 12 13  1  1
 12 14  1  0
 14 15  1  0
 15 16  2  0
 16 17  1  0
 17 18  1  0
 18 19  2  0
  7 20  1  0
 20 21  2  0
 21 22  1  0
 22 23  2  0
 23 24  1  0
 24 25  2  0
 25  5  1  0
 19 15  1  0
 25 20  1  0
M  END
>  <energy_score>  (94) 
-5.661296

>  <fragmenstein_runtime>  (94) 
11.652939

>  <HIPPO Pose ID>  (94) 
503413

>  <fragmenstein_error>  (94) 


>  <alias>  (94) 
IYLAFSLXRPFYJV-UHFFFAOYSA-N-P183-P126-P183-601502

>  <orig_smiles>  (94) 
COC(=O)c1nn(CC(=O)NC(C)Cc2cocn2)c2ccccc12

>  <smiles>  (94) 
COC(=O)c1nn(CC(=O)NC(C)Cc2cocn2)c2ccccc12

>  <inchikey>  (94) 
IYLAFSLXRPFYJV-UHFFFAOYSA-N

>  <HIPPO Compound ID>  (94) 
289841

>  <fragmenstein_mode>  (94) 
expansion

>  <fragmenstein_outcome>  (94) 
too moved

>  <distance_score>  (94) 
2.769654

>  <subsites>  (94) 
None

>  <scratch_subdir>  (94) 
/opt/xchem-fragalysis-2/maxwin/BulkDock/SCRATCH/601502/IYLAFSLXRPFYJV-UHFFFAOYSA-N-P183-P126-P183-601502

>  <inspiration_score>  (94) 
None

>  <name>  (94) 
IYLAFSLXRPFYJV-UHFFFAOYSA-N-P183-P126-P183-601502

>  <ref_mols>  (94) 
A2290a,A3436a

>  <ref_pdb>  (94) 
A0514a

>  <exports>  (94) 
['/opt/xchem-fragalysis-2/maxwin/openbind-hippo/a71ev2a/cycle_01/syndirella/elabs/ASAP-0031281-001_elabs.sdf']

>  <Energy>  (94) 
112.677328

>  <tags>  (94) 
fragmenstein_placed,a71ev2a_c1_elab_bulkdock_input

>  <GNINA pK>  (94) 
nan

$$$$
WAXKGPOPNPBULI-UHFFFAOYSA-N-P126-P126-P183-601502
     RDKit          3D

 25 27  0  0  0  0  0  0  0  0999 V2000
    5.3249   15.0218   28.6778 C   0  0  0  0  0  0  0  0  0  0  0  0
    6.0691   14.1656   27.8111 O   0  0  0  0  0  0  0  0  0  0  0  0
    5.6245   12.8860   27.7737 C   0  0  0  0  0  0  0  0  0  0  0  0
    4.7140   12.4242   28.4446 O   0  0  0  0  0  0  0  0  0  0  0  0
    6.4207   12.0826   26.8069 C   0  0  0  0  0  0  0  0  0  0  0  0
    6.1722   10.7076   26.7308 C   0  0  0  0  0  0  0  0  0  0  0  0
    6.8654    9.8882   25.8346 C   0  0  0  0  0  0  0  0  0  0  0  0
    7.8098   10.4864   25.0016 C   0  0  0  0  0  0  0  0  0  0  0  0
    8.0626   11.8543   25.0458 C   0  0  0  0  0  0  0  0  0  0  0  0
    7.3874   12.6657   25.9750 C   0  0  0  0  0  0  0  0  0  0  0  0
    9.0789   12.0498   24.0911 C   0  0  0  0  0  0  0  0  0  0  0  0
    9.9749   13.1810   23.9285 C   0  0  0  0  0  0  0  0  0  0  0  0
    9.9435   14.1294   24.6021 O   0  0  0  0  0  0  0  0  0  0  0  0
   10.9487   12.7853   22.8156 N   0  0  0  0  0  0  0  0  0  0  0  0
   12.1326   13.4160   22.3611 C   0  0  2  0  0  0  0  0  0  0  0  0
   13.0275   13.3604   23.5897 C   0  0  0  0  0  0  0  0  0  0  0  0
   12.0133   14.8346   21.8542 C   0  0  0  0  0  0  0  0  0  0  0  0
   10.9212   15.1320   20.9063 C   0  0  0  0  0  0  0  0  0  0  0  0
   10.7956   14.9028   19.5577 C   0  0  0  0  0  0  0  0  0  0  0  0
    9.8022   15.7172   19.0887 O   0  0  0  0  0  0  0  0  0  0  0  0
    9.3855   16.3926   20.1864 C   0  0  0  0  0  0  0  0  0  0  0  0
    9.9429   16.0024   21.3000 N   0  0  0  0  0  0  0  0  0  0  0  0
    9.3490   10.9265   23.4049 N   0  0  0  0  0  0  0  0  0  0  0  0
    8.6567    9.9904   24.0425 N   0  0  0  0  0  0  0  0  0  0  0  0
    8.9444    8.6242   23.7085 C   0  0  0  0  0  0  0  0  0  0  0  0
  1  2  1  0
  2  3  1  0
  3  4  2  0
  3  5  1  0
  5  6  2  0
  6  7  1  0
  7  8  2  0
  8  9  1  0
  9 10  2  0
  9 11  1  0
 11 12  1  0
 12 13  2  0
 12 14  1  0
 14 15  1  0
 15 16  1  1
 15 17  1  0
 17 18  1  0
 18 19  2  0
 19 20  1  0
 20 21  1  0
 21 22  2  0
 11 23  2  0
 23 24  1  0
 24 25  1  0
 10  5  1  0
 22 18  1  0
 24  8  1  0
M  END
>  <energy_score>  (95) 
-12.958549

>  <fragmenstein_runtime>  (95) 
8.49881

>  <HIPPO Pose ID>  (95) 
503414

>  <fragmenstein_error>  (95) 


>  <alias>  (95) 
WAXKGPOPNPBULI-UHFFFAOYSA-N-P126-P126-P183-601502

>  <orig_smiles>  (95) 
COC(=O)c1ccc2c(c1)c(C(=O)NC(C)Cc1cocn1)nn2C

>  <smiles>  (95) 
COC(=O)c1ccc2c(c1)c(C(=O)NC(C)Cc1cocn1)nn2C

>  <inchikey>  (95) 
WAXKGPOPNPBULI-UHFFFAOYSA-N

>  <HIPPO Compound ID>  (95) 
289842

>  <fragmenstein_mode>  (95) 
expansion

>  <fragmenstein_outcome>  (95) 
acceptable

>  <distance_score>  (95) 
0.672065

>  <subsites>  (95) 
None

>  <scratch_subdir>  (95) 
/opt/xchem-fragalysis-2/maxwin/BulkDock/SCRATCH/601502/WAXKGPOPNPBULI-UHFFFAOYSA-N-P126-P126-P183-601502

>  <inspiration_score>  (95) 
None

>  <name>  (95) 
WAXKGPOPNPBULI-UHFFFAOYSA-N-P126-P126-P183-601502

>  <ref_mols>  (95) 
A2290a,A3436a

>  <ref_pdb>  (95) 
A0514a

>  <exports>  (95) 
['/opt/xchem-fragalysis-2/maxwin/openbind-hippo/a71ev2a/cycle_01/syndirella/elabs/openbind_a71ev2a_c1_elab_chemspace_filtered.sdf', '/opt/xchem-fragalysis-2/maxwin/BulkDock/OUTPUTS/a71ev2a_c1_elab_bulkdock_input_1GFT2LV.sdf', '/opt/xchem-fragalysis-2/maxwin/openbind-hippo/a71ev2a/cycle_01/syndirella/elabs/ASAP-0031281-001_elabs.sdf']

>  <Energy>  (95) 
94.998796

>  <tags>  (95) 
fragmenstein_placed,a71ev2a_c1_elab_bulkdock_input,BulkDock Fragalysis export,openbind_a71ev2a_c1_elabs_filtered

>  <GNINA pK>  (95) 
nan

$$$$
WAXKGPOPNPBULI-UHFFFAOYSA-N-P183-P126-P183-601502
     RDKit          3D

 25 27  0  0  0  0  0  0  0  0999 V2000
    4.9573   15.2317   28.0906 C   0  0  0  0  0  0  0  0  0  0  0  0
    5.7959   14.3665   27.3245 O   0  0  0  0  0  0  0  0  0  0  0  0
    5.4638   13.0552   27.4024 C   0  0  0  0  0  0  0  0  0  0  0  0
    4.5798   12.5789   28.0983 O   0  0  0  0  0  0  0  0  0  0  0  0
    6.3519   12.2363   26.5345 C   0  0  0  0  0  0  0  0  0  0  0  0
    6.1893   10.8481   26.5516 C   0  0  0  0  0  0  0  0  0  0  0  0
    6.9657   10.0143   25.7403 C   0  0  0  0  0  0  0  0  0  0  0  0
    7.9210   10.6016   24.9076 C   0  0  0  0  0  0  0  0  0  0  0  0
    8.0932   11.9809   24.8672 C   0  0  0  0  0  0  0  0  0  0  0  0
    7.3182   12.8134   25.6980 C   0  0  0  0  0  0  0  0  0  0  0  0
    9.1293   12.1804   23.9310 C   0  0  0  0  0  0  0  0  0  0  0  0
    9.8820   13.4015   23.6734 C   0  0  0  0  0  0  0  0  0  0  0  0
    9.7531   14.3599   24.3218 O   0  0  0  0  0  0  0  0  0  0  0  0
   10.8567   13.0984   22.5311 N   0  0  0  0  0  0  0  0  0  0  0  0
   11.9324   13.8629   22.0090 C   0  0  2  0  0  0  0  0  0  0  0  0
   12.4472   14.8270   23.0312 C   0  0  0  0  0  0  0  0  0  0  0  0
   11.8213   14.4986   20.6438 C   0  0  0  0  0  0  0  0  0  0  0  0
   10.6347   15.3168   20.3755 C   0  0  0  0  0  0  0  0  0  0  0  0
   10.1993   15.6942   19.1353 C   0  0  0  0  0  0  0  0  0  0  0  0
    9.2421   16.6372   19.2878 O   0  0  0  0  0  0  0  0  0  0  0  0
    9.1031   16.7410   20.6365 C   0  0  0  0  0  0  0  0  0  0  0  0
    9.8952   15.9546   21.3310 N   0  0  0  0  0  0  0  0  0  0  0  0
    9.4976   11.0316   23.3370 N   0  0  0  0  0  0  0  0  0  0  0  0
    8.8130   10.0918   23.9921 N   0  0  0  0  0  0  0  0  0  0  0  0
    9.0958    8.7176   23.6639 C   0  0  0  0  0  0  0  0  0  0  0  0
  1  2  1  0
  2  3  1  0
  3  4  2  0
  3  5  1  0
  5  6  2  0
  6  7  1  0
  7  8  2  0
  8  9  1  0
  9 10  2  0
  9 11  1  0
 11 12  1  0
 12 13  2  0
 12 14  1  0
 14 15  1  0
 15 16  1  1
 15 17  1  0
 17 18  1  0
 18 19  2  0
 19 20  1  0
 20 21  1  0
 21 22  2  0
 11 23  2  0
 23 24  1  0
 24 25  1  0
 10  5  1  0
 22 18  1  0
 24  8  1  0
M  END
>  <energy_score>  (96) 
-13.544679

>  <fragmenstein_runtime>  (96) 
5.927936

>  <HIPPO Pose ID>  (96) 
503415

>  <fragmenstein_error>  (96) 


>  <alias>  (96) 
WAXKGPOPNPBULI-UHFFFAOYSA-N-P183-P126-P183-601502

>  <orig_smiles>  (96) 
COC(=O)c1ccc2c(c1)c(C(=O)NC(C)Cc1cocn1)nn2C

>  <smiles>  (96) 
COC(=O)c1ccc2c(c1)c(C(=O)NC(C)Cc1cocn1)nn2C

>  <inchikey>  (96) 
WAXKGPOPNPBULI-UHFFFAOYSA-N

>  <HIPPO Compound ID>  (96) 
289842

>  <fragmenstein_mode>  (96) 
expansion

>  <fragmenstein_outcome>  (96) 
acceptable

>  <distance_score>  (96) 
0.6101

>  <subsites>  (96) 
None

>  <scratch_subdir>  (96) 
/opt/xchem-fragalysis-2/maxwin/BulkDock/SCRATCH/601502/WAXKGPOPNPBULI-UHFFFAOYSA-N-P183-P126-P183-601502

>  <inspiration_score>  (96) 
None

>  <name>  (96) 
WAXKGPOPNPBULI-UHFFFAOYSA-N-P183-P126-P183-601502

>  <ref_mols>  (96) 
A2290a,A3436a

>  <ref_pdb>  (96) 
A0514a

>  <exports>  (96) 
['/opt/xchem-fragalysis-2/maxwin/openbind-hippo/a71ev2a/cycle_01/syndirella/elabs/openbind_a71ev2a_c1_elab_chemspace_filtered.sdf', '/opt/xchem-fragalysis-2/maxwin/BulkDock/OUTPUTS/a71ev2a_c1_elab_bulkdock_input_1GFT2LV.sdf', '/opt/xchem-fragalysis-2/maxwin/openbind-hippo/a71ev2a/cycle_01/syndirella/elabs/ASAP-0031281-001_elabs.sdf']

>  <Energy>  (96) 
94.412667

>  <tags>  (96) 
fragmenstein_placed,a71ev2a_c1_elab_bulkdock_input,BulkDock Fragalysis export,openbind_a71ev2a_c1_elabs_filtered

>  <GNINA pK>  (96) 
nan

$$$$
NARDMBJQZZPCHY-UHFFFAOYSA-N-P126-P126-P183-601502
     RDKit          3D

 25 27  0  0  0  0  0  0  0  0999 V2000
    6.0105   15.6226   23.6480 C   0  0  0  0  0  0  0  0  0  0  0  0
    6.6445   15.0685   22.4935 O   0  0  0  0  0  0  0  0  0  0  0  0
    7.4089   13.9455   22.6195 C   0  0  0  0  0  0  0  0  0  0  0  0
    7.5408   13.1869   21.6695 O   0  0  0  0  0  0  0  0  0  0  0  0
    7.9749   13.6095   23.9198 C   0  0  0  0  0  0  0  0  0  0  0  0
    8.4420   14.5483   24.7717 N   0  0  0  0  0  0  0  0  0  0  0  0
    8.8389   13.8076   25.8017 N   0  0  0  0  0  0  0  0  0  0  0  0
   10.2289   13.8352   26.2195 C   0  0  0  0  0  0  0  0  0  0  0  0
   11.2350   14.6095   25.4457 C   0  0  0  0  0  0  0  0  0  0  0  0
   11.8272   15.4808   25.9598 O   0  0  0  0  0  0  0  0  0  0  0  0
   11.3777   13.9945   24.0188 N   0  0  0  0  0  0  0  0  0  0  0  0
   12.2157   14.3916   22.8997 C   0  0  0  0  0  0  0  0  0  0  0  0
   11.7641   13.8358   21.5574 C   0  0  0  0  0  0  0  0  0  0  0  0
   10.8666   14.7386   20.8079 C   0  0  0  0  0  0  0  0  0  0  0  0
   10.7643   14.9527   19.4546 C   0  0  0  0  0  0  0  0  0  0  0  0
    9.8812   15.9687   19.2499 O   0  0  0  0  0  0  0  0  0  0  0  0
    9.5066   16.3268   20.5085 C   0  0  0  0  0  0  0  0  0  0  0  0
    8.6114   17.4838   20.6443 C   0  0  0  0  0  0  0  0  0  0  0  0
   10.0031   15.5661   21.4601 N   0  0  0  0  0  0  0  0  0  0  0  0
    8.1054   12.6461   25.8722 C   0  0  0  0  0  0  0  0  0  0  0  0
    7.6558   11.8201   26.8967 C   0  0  0  0  0  0  0  0  0  0  0  0
    7.2815   10.5290   26.5348 C   0  0  0  0  0  0  0  0  0  0  0  0
    7.5542   10.0700   25.2602 C   0  0  0  0  0  0  0  0  0  0  0  0
    7.9707   10.9576   24.2598 C   0  0  0  0  0  0  0  0  0  0  0  0
    8.0529   12.3186   24.5383 C   0  0  0  0  0  0  0  0  0  0  0  0
  1  2  1  0
  2  3  1  0
  3  4  2  0
  3  5  1  0
  5  6  2  0
  6  7  1  0
  7  8  1  0
  8  9  1  0
  9 10  2  0
  9 11  1  0
 11 12  1  0
 12 13  1  0
 13 14  1  0
 14 15  2  0
 15 16  1  0
 16 17  1  0
 17 18  1  0
 17 19  2  0
  7 20  1  0
 20 21  2  0
 21 22  1  0
 22 23  2  0
 23 24  1  0
 24 25  2  0
 25  5  1  0
 19 14  1  0
 25 20  1  0
M  END
>  <energy_score>  (97) 
37.60456

>  <fragmenstein_runtime>  (97) 
5.841344

>  <HIPPO Pose ID>  (97) 
503416

>  <fragmenstein_error>  (97) 


>  <alias>  (97) 
NARDMBJQZZPCHY-UHFFFAOYSA-N-P126-P126-P183-601502

>  <orig_smiles>  (97) 
COC(=O)c1nn(CC(=O)NCCc2coc(C)n2)c2ccccc12

>  <smiles>  (97) 
COC(=O)c1nn(CC(=O)NCCc2coc(C)n2)c2ccccc12

>  <inchikey>  (97) 
NARDMBJQZZPCHY-UHFFFAOYSA-N

>  <HIPPO Compound ID>  (97) 
289843

>  <fragmenstein_mode>  (97) 
expansion

>  <fragmenstein_outcome>  (97) 
too moved

>  <distance_score>  (97) 
2.743804

>  <subsites>  (97) 
None

>  <scratch_subdir>  (97) 
/opt/xchem-fragalysis-2/maxwin/BulkDock/SCRATCH/601502/NARDMBJQZZPCHY-UHFFFAOYSA-N-P126-P126-P183-601502

>  <inspiration_score>  (97) 
None

>  <name>  (97) 
NARDMBJQZZPCHY-UHFFFAOYSA-N-P126-P126-P183-601502

>  <ref_mols>  (97) 
A2290a,A3436a

>  <ref_pdb>  (97) 
A0514a

>  <exports>  (97) 
['/opt/xchem-fragalysis-2/maxwin/openbind-hippo/a71ev2a/cycle_01/syndirella/elabs/ASAP-0031281-001_elabs.sdf']

>  <Energy>  (97) 
148.076074

>  <tags>  (97) 
fragmenstein_placed,a71ev2a_c1_elab_bulkdock_input

>  <GNINA pK>  (97) 
nan

$$$$
NARDMBJQZZPCHY-UHFFFAOYSA-N-P183-P126-P183-601502
     RDKit          3D

 25 27  0  0  0  0  0  0  0  0999 V2000
    4.9820    9.5838   28.5408 C   0  0  0  0  0  0  0  0  0  0  0  0
    5.8894   10.1463   27.5935 O   0  0  0  0  0  0  0  0  0  0  0  0
    5.5857   11.4310   27.2393 C   0  0  0  0  0  0  0  0  0  0  0  0
    4.6350   12.0433   27.7220 O   0  0  0  0  0  0  0  0  0  0  0  0
    6.4934   11.9972   26.2294 C   0  0  0  0  0  0  0  0  0  0  0  0
    7.5363   11.3294   25.6796 N   0  0  0  0  0  0  0  0  0  0  0  0
    8.0267   12.1986   24.7622 N   0  0  0  0  0  0  0  0  0  0  0  0
    9.1873   11.8660   23.9499 C   0  0  0  0  0  0  0  0  0  0  0  0
   10.3066   12.8909   24.1789 C   0  0  0  0  0  0  0  0  0  0  0  0
   10.4767   13.3137   25.2853 O   0  0  0  0  0  0  0  0  0  0  0  0
   10.9665   13.2038   22.9488 N   0  0  0  0  0  0  0  0  0  0  0  0
   11.9704   14.1875   22.6402 C   0  0  0  0  0  0  0  0  0  0  0  0
   12.1929   14.4130   21.1532 C   0  0  0  0  0  0  0  0  0  0  0  0
   11.0540   15.0670   20.4866 C   0  0  0  0  0  0  0  0  0  0  0  0
   10.7580   15.1723   19.1492 C   0  0  0  0  0  0  0  0  0  0  0  0
    9.7379   16.0660   19.0192 O   0  0  0  0  0  0  0  0  0  0  0  0
    9.4844   16.4563   20.3013 C   0  0  0  0  0  0  0  0  0  0  0  0
    8.4957   17.5131   20.5173 C   0  0  0  0  0  0  0  0  0  0  0  0
   10.1770   15.8189   21.2135 N   0  0  0  0  0  0  0  0  0  0  0  0
    7.3102   13.3614   24.6514 C   0  0  0  0  0  0  0  0  0  0  0  0
    7.4098   14.4448   23.7717 C   0  0  0  0  0  0  0  0  0  0  0  0
    6.5027   15.4902   23.9472 C   0  0  0  0  0  0  0  0  0  0  0  0
    5.5616   15.4705   24.9714 C   0  0  0  0  0  0  0  0  0  0  0  0
    5.4715   14.3784   25.8337 C   0  0  0  0  0  0  0  0  0  0  0  0
    6.3535   13.2965   25.6564 C   0  0  0  0  0  0  0  0  0  0  0  0
  1  2  1  0
  2  3  1  0
  3  4  2  0
  3  5  1  0
  5  6  2  0
  6  7  1  0
  7  8  1  0
  8  9  1  0
  9 10  2  0
  9 11  1  0
 11 12  1  0
 12 13  1  0
 13 14  1  0
 14 15  2  0
 15 16  1  0
 16 17  1  0
 17 18  1  0
 17 19  2  0
  7 20  1  0
 20 21  2  0
 21 22  1  0
 22 23  2  0
 23 24  1  0
 24 25  2  0
 25  5  1  0
 19 14  1  0
 25 20  1  0
M  END
>  <energy_score>  (98) 
-24.914086

>  <fragmenstein_runtime>  (98) 
11.212335

>  <HIPPO Pose ID>  (98) 
503417

>  <fragmenstein_error>  (98) 


>  <alias>  (98) 
NARDMBJQZZPCHY-UHFFFAOYSA-N-P183-P126-P183-601502

>  <orig_smiles>  (98) 
COC(=O)c1nn(CC(=O)NCCc2coc(C)n2)c2ccccc12

>  <smiles>  (98) 
COC(=O)c1nn(CC(=O)NCCc2coc(C)n2)c2ccccc12

>  <inchikey>  (98) 
NARDMBJQZZPCHY-UHFFFAOYSA-N

>  <HIPPO Compound ID>  (98) 
289843

>  <fragmenstein_mode>  (98) 
expansion

>  <fragmenstein_outcome>  (98) 
too moved

>  <distance_score>  (98) 
3.124983

>  <subsites>  (98) 
None

>  <scratch_subdir>  (98) 
/opt/xchem-fragalysis-2/maxwin/BulkDock/SCRATCH/601502/NARDMBJQZZPCHY-UHFFFAOYSA-N-P183-P126-P183-601502

>  <inspiration_score>  (98) 
None

>  <name>  (98) 
NARDMBJQZZPCHY-UHFFFAOYSA-N-P183-P126-P183-601502

>  <ref_mols>  (98) 
A2290a,A3436a

>  <ref_pdb>  (98) 
A0514a

>  <exports>  (98) 
['/opt/xchem-fragalysis-2/maxwin/openbind-hippo/a71ev2a/cycle_01/syndirella/elabs/ASAP-0031281-001_elabs.sdf']

>  <Energy>  (98) 
89.415357

>  <tags>  (98) 
fragmenstein_placed,a71ev2a_c1_elab_bulkdock_input

>  <GNINA pK>  (98) 
nan

$$$$
GAZCAKNIIVMANI-UHFFFAOYSA-N-P126-P126-P183-601502
     RDKit          3D

 25 27  0  0  0  0  0  0  0  0999 V2000
    7.0501   14.7859   30.2261 C   0  0  0  0  0  0  0  0  0  0  0  0
    7.2120   14.0093   29.0387 O   0  0  0  0  0  0  0  0  0  0  0  0
    8.0845   14.5520   28.1354 C   0  0  0  0  0  0  0  0  0  0  0  0
    8.7158   15.5857   28.3396 O   0  0  0  0  0  0  0  0  0  0  0  0
    8.2029   13.7564   26.9050 C   0  0  0  0  0  0  0  0  0  0  0  0
    8.9676   14.1877   25.8754 N   0  0  0  0  0  0  0  0  0  0  0  0
    8.5869   13.3670   24.8654 N   0  0  0  0  0  0  0  0  0  0  0  0
    7.9625   14.0218   23.7303 C   0  0  0  0  0  0  0  0  0  0  0  0
    8.6781   13.8390   22.4346 C   0  0  0  0  0  0  0  0  0  0  0  0
    8.0777   13.4990   21.4910 O   0  0  0  0  0  0  0  0  0  0  0  0
   10.1662   14.2578   22.5836 N   0  0  0  0  0  0  0  0  0  0  0  0
   11.2017   14.4364   21.5786 C   0  0  0  0  0  0  0  0  0  0  0  0
   10.6725   14.8239   20.1901 C   0  0  0  0  0  0  0  0  0  0  0  0
    9.8401   16.0657   20.1402 C   0  0  0  0  0  0  0  0  0  0  0  0
    9.3746   16.5956   21.2987 N   0  0  0  0  0  0  0  0  0  0  0  0
    8.7145   17.6726   20.9648 C   0  0  0  0  0  0  0  0  0  0  0  0
    8.6482   17.8954   19.6517 O   0  0  0  0  0  0  0  0  0  0  0  0
    9.3236   16.8445   19.1260 C   0  0  0  0  0  0  0  0  0  0  0  0
    9.1818   16.8192   17.6942 C   0  0  0  0  0  0  0  0  0  0  0  0
    8.1868   12.1388   25.3406 C   0  0  0  0  0  0  0  0  0  0  0  0
    8.0819   10.8832   24.7469 C   0  0  0  0  0  0  0  0  0  0  0  0
    7.3667    9.9220   25.4604 C   0  0  0  0  0  0  0  0  0  0  0  0
    6.7358   10.2304   26.6646 C   0  0  0  0  0  0  0  0  0  0  0  0
    6.8906   11.4892   27.2562 C   0  0  0  0  0  0  0  0  0  0  0  0
    7.6787   12.4520   26.6037 C   0  0  0  0  0  0  0  0  0  0  0  0
  1  2  1  0
  2  3  1  0
  3  4  2  0
  3  5  1  0
  5  6  2  0
  6  7  1  0
  7  8  1  0
  8  9  1  0
  9 10  2  0
  9 11  1  0
 11 12  1  0
 12 13  1  0
 13 14  1  0
 14 15  1  0
 15 16  2  0
 16 17  1  0
 17 18  1  0
 18 19  1  0
  7 20  1  0
 20 21  2  0
 21 22  1  0
 22 23  2  0
 23 24  1  0
 24 25  2  0
 25  5  1  0
 18 14  2  0
 25 20  1  0
M  END
>  <energy_score>  (99) 
6.086416

>  <fragmenstein_runtime>  (99) 
6.237036

>  <HIPPO Pose ID>  (99) 
503418

>  <fragmenstein_error>  (99) 


>  <alias>  (99) 
GAZCAKNIIVMANI-UHFFFAOYSA-N-P126-P126-P183-601502

>  <orig_smiles>  (99) 
COC(=O)c1nn(CC(=O)NCCc2ncoc2C)c2ccccc12

>  <smiles>  (99) 
COC(=O)c1nn(CC(=O)NCCc2ncoc2C)c2ccccc12

>  <inchikey>  (99) 
GAZCAKNIIVMANI-UHFFFAOYSA-N

>  <HIPPO Compound ID>  (99) 
289844

>  <fragmenstein_mode>  (99) 
expansion

>  <fragmenstein_outcome>  (99) 
too moved

>  <distance_score>  (99) 
2.135146

>  <subsites>  (99) 
None

>  <scratch_subdir>  (99) 
/opt/xchem-fragalysis-2/maxwin/BulkDock/SCRATCH/601502/GAZCAKNIIVMANI-UHFFFAOYSA-N-P126-P126-P183-601502

>  <inspiration_score>  (99) 
None

>  <name>  (99) 
GAZCAKNIIVMANI-UHFFFAOYSA-N-P126-P126-P183-601502

>  <ref_mols>  (99) 
A2290a,A3436a

>  <ref_pdb>  (99) 
A0514a

>  <exports>  (99) 
['/opt/xchem-fragalysis-2/maxwin/openbind-hippo/a71ev2a/cycle_01/syndirella/elabs/ASAP-0031281-001_elabs.sdf']

>  <Energy>  (99) 
122.023678

>  <tags>  (99) 
fragmenstein_placed,a71ev2a_c1_elab_bulkdock_input

>  <GNINA pK>  (99) 
nan

$$$$
GAZCAKNIIVMANI-UHFFFAOYSA-N-P183-P126-P183-601502
     RDKit          3D

 25 27  0  0  0  0  0  0  0  0999 V2000
    5.8024   16.5572   27.3794 C   0  0  0  0  0  0  0  0  0  0  0  0
    6.1412   15.3007   26.7925 O   0  0  0  0  0  0  0  0  0  0  0  0
    7.4571   15.1881   26.4371 C   0  0  0  0  0  0  0  0  0  0  0  0
    8.3062   16.0409   26.6840 O   0  0  0  0  0  0  0  0  0  0  0  0
    7.7604   13.9093   25.7825 C   0  0  0  0  0  0  0  0  0  0  0  0
    8.7777   13.7832   24.9126 N   0  0  0  0  0  0  0  0  0  0  0  0
    8.8285   12.4698   24.6229 N   0  0  0  0  0  0  0  0  0  0  0  0
    9.7961   11.9697   23.6809 C   0  0  0  0  0  0  0  0  0  0  0  0
   11.1568   12.6044   23.8576 C   0  0  0  0  0  0  0  0  0  0  0  0
   12.0479   12.0689   24.3735 O   0  0  0  0  0  0  0  0  0  0  0  0
   11.0887   13.9550   23.1522 N   0  0  0  0  0  0  0  0  0  0  0  0
   12.1089   14.8861   22.8487 C   0  0  0  0  0  0  0  0  0  0  0  0
   12.2333   14.9604   21.3527 C   0  0  0  0  0  0  0  0  0  0  0  0
   10.9783   15.4155   20.7094 C   0  0  0  0  0  0  0  0  0  0  0  0
    9.9630   16.0458   21.3724 N   0  0  0  0  0  0  0  0  0  0  0  0
    9.1823   16.4828   20.4126 C   0  0  0  0  0  0  0  0  0  0  0  0
    9.5342   16.0654   19.1628 O   0  0  0  0  0  0  0  0  0  0  0  0
   10.6780   15.3620   19.3796 C   0  0  0  0  0  0  0  0  0  0  0  0
   11.4154   14.8111   18.2564 C   0  0  0  0  0  0  0  0  0  0  0  0
    7.8793   11.7272   25.2612 C   0  0  0  0  0  0  0  0  0  0  0  0
    7.6142   10.3625   25.2629 C   0  0  0  0  0  0  0  0  0  0  0  0
    6.5356    9.9449   26.0377 C   0  0  0  0  0  0  0  0  0  0  0  0
    5.8098   10.8216   26.8339 C   0  0  0  0  0  0  0  0  0  0  0  0
    6.1060   12.1802   26.8348 C   0  0  0  0  0  0  0  0  0  0  0  0
    7.1459   12.6455   26.0143 C   0  0  0  0  0  0  0  0  0  0  0  0
  1  2  1  0
  2  3  1  0
  3  4  2  0
  3  5  1  0
  5  6  2  0
  6  7  1  0
  7  8  1  0
  8  9  1  0
  9 10  2  0
  9 11  1  0
 11 12  1  0
 12 13  1  0
 13 14  1  0
 14 15  1  0
 15 16  2  0
 16 17  1  0
 17 18  1  0
 18 19  1  0
  7 20  1  0
 20 21  2  0
 21 22  1  0
 22 23  2  0
 23 24  1  0
 24 25  2  0
 25  5  1  0
 18 14  2  0
 25 20  1  0
M  END
>  <energy_score>  (100) 
-11.519728

>  <fragmenstein_runtime>  (100) 
6.969447

>  <HIPPO Pose ID>  (100) 
503419

>  <fragmenstein_error>  (100) 


>  <alias>  (100) 
GAZCAKNIIVMANI-UHFFFAOYSA-N-P183-P126-P183-601502

>  <orig_smiles>  (100) 
COC(=O)c1nn(CC(=O)NCCc2ncoc2C)c2ccccc12

>  <smiles>  (100) 
COC(=O)c1nn(CC(=O)NCCc2ncoc2C)c2ccccc12

>  <inchikey>  (100) 
GAZCAKNIIVMANI-UHFFFAOYSA-N

>  <HIPPO Compound ID>  (100) 
289844

>  <fragmenstein_mode>  (100) 
expansion

>  <fragmenstein_outcome>  (100) 
too moved

>  <distance_score>  (100) 
1.608322

>  <subsites>  (100) 
None

>  <scratch_subdir>  (100) 
/opt/xchem-fragalysis-2/maxwin/BulkDock/SCRATCH/601502/GAZCAKNIIVMANI-UHFFFAOYSA-N-P183-P126-P183-601502

>  <inspiration_score>  (100) 
None

>  <name>  (100) 
GAZCAKNIIVMANI-UHFFFAOYSA-N-P183-P126-P183-601502

>  <ref_mols>  (100) 
A2290a,A3436a

>  <ref_pdb>  (100) 
A0514a

>  <exports>  (100) 
['/opt/xchem-fragalysis-2/maxwin/openbind-hippo/a71ev2a/cycle_01/bulkdock/openbind_a71ev2a_c1_elab_chemspace.sdf', '/opt/xchem-fragalysis-2/maxwin/openbind-hippo/a71ev2a/cycle_01/syndirella/elabs/openbind_a71ev2a_c1_elab_chemspace_filtered.sdf', '/opt/xchem-fragalysis-2/maxwin/openbind-hippo/a71ev2a/cycle_01/syndirella/elabs/ASAP-0031281-001_elabs.sdf']

>  <Energy>  (100) 
104.417534

>  <tags>  (100) 
fragmenstein_placed,openbind_a71ev2a_c1_elabs_filtered,a71ev2a_c1_elab_bulkdock_input

>  <GNINA pK>  (100) 
nan

$$$$
NFKBWSGWMMTOMN-UHFFFAOYSA-N-P126-P126-P183-601502
     RDKit          3D

 25 27  0  0  0  0  0  0  0  0999 V2000
    8.6010   17.3315   20.7216 C   0  0  0  0  0  0  0  0  0  0  0  0
    9.5688   16.2316   20.5782 C   0  0  0  0  0  0  0  0  0  0  0  0
   10.2554   15.6285   21.5281 N   0  0  0  0  0  0  0  0  0  0  0  0
   11.1794   14.8979   20.8517 C   0  0  0  0  0  0  0  0  0  0  0  0
   12.4053   14.3384   21.4502 C   0  0  0  0  0  0  0  0  0  0  0  0
   12.3624   14.2563   22.9461 C   0  0  0  0  0  0  0  0  0  0  0  0
   11.4533   13.2706   23.3988 N   0  0  0  0  0  0  0  0  0  0  0  0
   10.4380   13.3059   24.5355 C   0  0  0  0  0  0  0  0  0  0  0  0
   10.2321   14.1218   25.3383 O   0  0  0  0  0  0  0  0  0  0  0  0
    9.6990   12.0494   24.4433 C   0  0  0  0  0  0  0  0  0  0  0  0
   10.1369   11.0891   23.6109 N   0  0  0  0  0  0  0  0  0  0  0  0
    9.3292   10.0312   23.8437 N   0  0  0  0  0  0  0  0  0  0  0  0
    9.5254    8.8055   23.0534 C   0  0  0  0  0  0  0  0  0  0  0  0
    8.3810    8.1102   22.9363 F   0  0  0  0  0  0  0  0  0  0  0  0
   10.4540    7.9720   23.5738 F   0  0  0  0  0  0  0  0  0  0  0  0
    9.9590    9.0874   21.8002 F   0  0  0  0  0  0  0  0  0  0  0  0
    8.3697   10.3174   24.7992 C   0  0  0  0  0  0  0  0  0  0  0  0
    7.3592    9.5631   25.3922 C   0  0  0  0  0  0  0  0  0  0  0  0
    6.5105   10.1815   26.3165 C   0  0  0  0  0  0  0  0  0  0  0  0
    6.6660   11.5219   26.6480 C   0  0  0  0  0  0  0  0  0  0  0  0
    7.6929   12.2697   26.0763 C   0  0  0  0  0  0  0  0  0  0  0  0
    8.5549   11.6515   25.1528 C   0  0  0  0  0  0  0  0  0  0  0  0
   10.9180   14.9702   19.5148 C   0  0  0  0  0  0  0  0  0  0  0  0
   11.7000   14.4852   18.3903 C   0  0  0  0  0  0  0  0  0  0  0  0
    9.8701   15.8147   19.3126 O   0  0  0  0  0  0  0  0  0  0  0  0
  1  2  1  0
  2  3  2  0
  3  4  1  0
  4  5  1  0
  5  6  1  0
  6  7  1  0
  7  8  1  0
  8  9  2  0
  8 10  1  0
 10 11  2  0
 11 12  1  0
 12 13  1  0
 13 14  1  0
 13 15  1  0
 13 16  1  0
 12 17  1  0
 17 18  2  0
 18 19  1  0
 19 20  2  0
 20 21  1  0
 21 22  2  0
  4 23  2  0
 23 24  1  0
 23 25  1  0
 25  2  1  0
 22 10  1  0
 22 17  1  0
M  END
>  <energy_score>  (101) 
-27.295087

>  <fragmenstein_runtime>  (101) 
4.384186

>  <HIPPO Pose ID>  (101) 
503420

>  <fragmenstein_error>  (101) 


>  <alias>  (101) 
NFKBWSGWMMTOMN-UHFFFAOYSA-N-P126-P126-P183-601502

>  <orig_smiles>  (101) 
Cc1nc(CCNC(=O)c2nn(C(F)(F)F)c3ccccc23)c(C)o1

>  <smiles>  (101) 
Cc1nc(CCNC(=O)c2nn(C(F)(F)F)c3ccccc23)c(C)o1

>  <inchikey>  (101) 
NFKBWSGWMMTOMN-UHFFFAOYSA-N

>  <HIPPO Compound ID>  (101) 
289845

>  <fragmenstein_mode>  (101) 
expansion

>  <fragmenstein_outcome>  (101) 
acceptable

>  <distance_score>  (101) 
0.682317

>  <subsites>  (101) 
None

>  <scratch_subdir>  (101) 
/opt/xchem-fragalysis-2/maxwin/BulkDock/SCRATCH/601502/NFKBWSGWMMTOMN-UHFFFAOYSA-N-P126-P126-P183-601502

>  <inspiration_score>  (101) 
None

>  <name>  (101) 
NFKBWSGWMMTOMN-UHFFFAOYSA-N-P126-P126-P183-601502

>  <ref_mols>  (101) 
A2290a,A3436a

>  <ref_pdb>  (101) 
A0514a

>  <exports>  (101) 
['/opt/xchem-fragalysis-2/maxwin/openbind-hippo/a71ev2a/cycle_01/syndirella/elabs/openbind_a71ev2a_c1_elab_chemspace_filtered.sdf', '/opt/xchem-fragalysis-2/maxwin/BulkDock/OUTPUTS/a71ev2a_c1_elab_bulkdock_input_1GFT2LV.sdf', '/opt/xchem-fragalysis-2/maxwin/openbind-hippo/a71ev2a/cycle_01/syndirella/elabs/ASAP-0031281-001_elabs.sdf']

>  <Energy>  (101) 
151.406521

>  <tags>  (101) 
fragmenstein_placed,a71ev2a_c1_elab_bulkdock_input,BulkDock Fragalysis export,openbind_a71ev2a_c1_elabs_filtered

>  <GNINA pK>  (101) 
nan

$$$$
NFKBWSGWMMTOMN-UHFFFAOYSA-N-P183-P126-P183-601502
     RDKit          3D

 25 27  0  0  0  0  0  0  0  0999 V2000
    8.3970   17.5244   20.6515 C   0  0  0  0  0  0  0  0  0  0  0  0
    9.4411   16.5219   20.4949 C   0  0  0  0  0  0  0  0  0  0  0  0
   10.1575   15.9673   21.4431 N   0  0  0  0  0  0  0  0  0  0  0  0
   11.0693   15.2260   20.7672 C   0  0  0  0  0  0  0  0  0  0  0  0
   12.2544   14.6455   21.4184 C   0  0  0  0  0  0  0  0  0  0  0  0
   12.1301   14.5629   22.9215 C   0  0  0  0  0  0  0  0  0  0  0  0
   11.1627   13.5949   23.3098 N   0  0  0  0  0  0  0  0  0  0  0  0
   10.0799   13.6505   24.3805 C   0  0  0  0  0  0  0  0  0  0  0  0
    9.8466   14.4657   25.1753 O   0  0  0  0  0  0  0  0  0  0  0  0
    9.3337   12.3973   24.2955 C   0  0  0  0  0  0  0  0  0  0  0  0
    9.7812   11.3948   23.5212 N   0  0  0  0  0  0  0  0  0  0  0  0
    9.0739   10.3149   23.9306 N   0  0  0  0  0  0  0  0  0  0  0  0
    9.4891    8.9805   23.4779 C   0  0  0  0  0  0  0  0  0  0  0  0
    9.4278    8.8548   22.1358 F   0  0  0  0  0  0  0  0  0  0  0  0
    8.7110    8.0289   24.0231 F   0  0  0  0  0  0  0  0  0  0  0  0
   10.7714    8.7152   23.8234 F   0  0  0  0  0  0  0  0  0  0  0  0
    8.0955   10.6496   24.8539 C   0  0  0  0  0  0  0  0  0  0  0  0
    7.1458    9.9081   25.5652 C   0  0  0  0  0  0  0  0  0  0  0  0
    6.2788   10.5783   26.4338 C   0  0  0  0  0  0  0  0  0  0  0  0
    6.3531   11.9553   26.5954 C   0  0  0  0  0  0  0  0  0  0  0  0
    7.3112   12.6919   25.9013 C   0  0  0  0  0  0  0  0  0  0  0  0
    8.1953   12.0251   25.0333 C   0  0  0  0  0  0  0  0  0  0  0  0
   10.7848   15.2720   19.4304 C   0  0  0  0  0  0  0  0  0  0  0  0
   11.4739   14.7475   18.2691 C   0  0  0  0  0  0  0  0  0  0  0  0
    9.7260   16.0985   19.2331 O   0  0  0  0  0  0  0  0  0  0  0  0
  1  2  1  0
  2  3  2  0
  3  4  1  0
  4  5  1  0
  5  6  1  0
  6  7  1  0
  7  8  1  0
  8  9  2  0
  8 10  1  0
 10 11  2  0
 11 12  1  0
 12 13  1  0
 13 14  1  0
 13 15  1  0
 13 16  1  0
 12 17  1  0
 17 18  2  0
 18 19  1  0
 19 20  2  0
 20 21  1  0
 21 22  2  0
  4 23  2  0
 23 24  1  0
 23 25  1  0
 25  2  1  0
 22 10  1  0
 22 17  1  0
M  END
>  <energy_score>  (102) 
-28.713104

>  <fragmenstein_runtime>  (102) 
3.726565

>  <HIPPO Pose ID>  (102) 
503421

>  <fragmenstein_error>  (102) 


>  <alias>  (102) 
NFKBWSGWMMTOMN-UHFFFAOYSA-N-P183-P126-P183-601502

>  <orig_smiles>  (102) 
Cc1nc(CCNC(=O)c2nn(C(F)(F)F)c3ccccc23)c(C)o1

>  <smiles>  (102) 
Cc1nc(CCNC(=O)c2nn(C(F)(F)F)c3ccccc23)c(C)o1

>  <inchikey>  (102) 
NFKBWSGWMMTOMN-UHFFFAOYSA-N

>  <HIPPO Compound ID>  (102) 
289845

>  <fragmenstein_mode>  (102) 
expansion

>  <fragmenstein_outcome>  (102) 
acceptable

>  <distance_score>  (102) 
0.668755

>  <subsites>  (102) 
None

>  <scratch_subdir>  (102) 
/opt/xchem-fragalysis-2/maxwin/BulkDock/SCRATCH/601502/NFKBWSGWMMTOMN-UHFFFAOYSA-N-P183-P126-P183-601502

>  <inspiration_score>  (102) 
None

>  <name>  (102) 
NFKBWSGWMMTOMN-UHFFFAOYSA-N-P183-P126-P183-601502

>  <ref_mols>  (102) 
A2290a,A3436a

>  <ref_pdb>  (102) 
A0514a

>  <exports>  (102) 
['/opt/xchem-fragalysis-2/maxwin/openbind-hippo/a71ev2a/cycle_01/bulkdock/openbind_a71ev2a_c1_elab_chemspace.sdf', '/opt/xchem-fragalysis-2/maxwin/openbind-hippo/a71ev2a/cycle_01/syndirella/elabs/openbind_a71ev2a_c1_elab_chemspace_filtered.sdf', '/opt/xchem-fragalysis-2/maxwin/BulkDock/OUTPUTS/a71ev2a_c1_elab_bulkdock_input_1GFT2LV.sdf', '/opt/xchem-fragalysis-2/maxwin/openbind-hippo/a71ev2a/cycle_01/syndirella/elabs/ASAP-0031281-001_elabs.sdf']

>  <Energy>  (102) 
149.988504

>  <tags>  (102) 
fragmenstein_placed,a71ev2a_c1_elab_bulkdock_input,BulkDock Fragalysis export,openbind_a71ev2a_c1_elabs_filtered

>  <GNINA pK>  (102) 
nan

$$$$
JWCKBUWRPPQKGH-UHFFFAOYSA-N-P126-P126-P183-601502
     RDKit          3D

 25 27  0  0  0  0  0  0  0  0999 V2000
   14.4941   11.9544   24.9644 C   0  0  0  0  0  0  0  0  0  0  0  0
   13.6573   12.4939   23.9166 O   0  0  0  0  0  0  0  0  0  0  0  0
   12.7254   13.4017   24.2794 C   0  0  0  0  0  0  0  0  0  0  0  0
   12.4923   13.6706   25.4598 O   0  0  0  0  0  0  0  0  0  0  0  0
   11.8774   14.0125   23.1588 C   0  0  1  0  0  0  0  0  0  0  0  0
   12.2801   14.0654   21.6968 C   0  0  0  0  0  0  0  0  0  0  0  0
   11.2301   14.7521   20.8741 C   0  0  0  0  0  0  0  0  0  0  0  0
   11.0089   14.7776   19.5165 C   0  0  0  0  0  0  0  0  0  0  0  0
    9.9627   15.6210   19.2658 O   0  0  0  0  0  0  0  0  0  0  0  0
    9.6113   16.0824   20.4902 C   0  0  0  0  0  0  0  0  0  0  0  0
   10.3019   15.5670   21.4776 N   0  0  0  0  0  0  0  0  0  0  0  0
   10.7315   13.2107   23.4203 N   0  0  0  0  0  0  0  0  0  0  0  0
    9.5821   13.4178   24.3912 C   0  0  0  0  0  0  0  0  0  0  0  0
    9.3353   14.3139   25.0864 O   0  0  0  0  0  0  0  0  0  0  0  0
    8.8351   12.1729   24.3786 C   0  0  0  0  0  0  0  0  0  0  0  0
    9.2789   11.1300   23.6451 N   0  0  0  0  0  0  0  0  0  0  0  0
    8.5970   10.0905   24.1335 N   0  0  0  0  0  0  0  0  0  0  0  0
    8.9773    8.7698   23.7028 C   0  0  0  0  0  0  0  0  0  0  0  0
    7.6789   10.4398   25.0930 C   0  0  0  0  0  0  0  0  0  0  0  0
    6.7528    9.7096   25.8323 C   0  0  0  0  0  0  0  0  0  0  0  0
    5.9956   10.3823   26.7922 C   0  0  0  0  0  0  0  0  0  0  0  0
    6.1562   11.7448   26.9919 C   0  0  0  0  0  0  0  0  0  0  0  0
    5.4244   12.3569   27.9326 F   0  0  0  0  0  0  0  0  0  0  0  0
    7.0615   12.4831   26.2442 C   0  0  0  0  0  0  0  0  0  0  0  0
    7.8138   11.8109   25.2682 C   0  0  0  0  0  0  0  0  0  0  0  0
  1  2  1  0
  2  3  1  0
  3  4  2  0
  3  5  1  0
  5  6  1  6
  6  7  1  0
  7  8  2  0
  8  9  1  0
  9 10  1  0
 10 11  2  0
  5 12  1  0
 12 13  1  0
 13 14  2  0
 13 15  1  0
 15 16  2  0
 16 17  1  0
 17 18  1  0
 17 19  1  0
 19 20  2  0
 20 21  1  0
 21 22  2  0
 22 23  1  0
 22 24  1  0
 24 25  2  0
 11  7  1  0
 25 15  1  0
 25 19  1  0
M  END
>  <energy_score>  (103) 
-23.950865

>  <fragmenstein_runtime>  (103) 
3.521981

>  <HIPPO Pose ID>  (103) 
503422

>  <fragmenstein_error>  (103) 


>  <alias>  (103) 
JWCKBUWRPPQKGH-UHFFFAOYSA-N-P126-P126-P183-601502

>  <orig_smiles>  (103) 
COC(=O)C(Cc1cocn1)NC(=O)c1nn(C)c2ccc(F)cc12

>  <smiles>  (103) 
COC(=O)C(Cc1cocn1)NC(=O)c1nn(C)c2ccc(F)cc12

>  <inchikey>  (103) 
JWCKBUWRPPQKGH-UHFFFAOYSA-N

>  <HIPPO Compound ID>  (103) 
289846

>  <fragmenstein_mode>  (103) 
expansion

>  <fragmenstein_outcome>  (103) 
acceptable

>  <distance_score>  (103) 
0.96948

>  <subsites>  (103) 
None

>  <scratch_subdir>  (103) 
/opt/xchem-fragalysis-2/maxwin/BulkDock/SCRATCH/601502/JWCKBUWRPPQKGH-UHFFFAOYSA-N-P126-P126-P183-601502

>  <inspiration_score>  (103) 
None

>  <name>  (103) 
JWCKBUWRPPQKGH-UHFFFAOYSA-N-P126-P126-P183-601502

>  <ref_mols>  (103) 
A2290a,A3436a

>  <ref_pdb>  (103) 
A0514a

>  <exports>  (103) 
['/opt/xchem-fragalysis-2/maxwin/openbind-hippo/a71ev2a/cycle_01/syndirella/elabs/openbind_a71ev2a_c1_elab_chemspace_filtered.sdf', '/opt/xchem-fragalysis-2/maxwin/BulkDock/OUTPUTS/a71ev2a_c1_elab_bulkdock_input_1GFT2LV.sdf', '/opt/xchem-fragalysis-2/maxwin/openbind-hippo/a71ev2a/cycle_01/syndirella/elabs/ASAP-0031281-001_elabs.sdf']

>  <Energy>  (103) 
97.073363

>  <tags>  (103) 
fragmenstein_placed,a71ev2a_c1_elab_bulkdock_input,BulkDock Fragalysis export,openbind_a71ev2a_c1_elabs_filtered

>  <GNINA pK>  (103) 
nan

$$$$
JWCKBUWRPPQKGH-UHFFFAOYSA-N-P183-P126-P183-601502
     RDKit          3D

 25 27  0  0  0  0  0  0  0  0999 V2000
   12.4979   13.2365   24.8286 C   0  0  0  0  0  0  0  0  0  0  0  0
   12.7746   13.2246   23.4449 O   0  0  0  0  0  0  0  0  0  0  0  0
   12.5403   14.4099   22.8437 C   0  0  0  0  0  0  0  0  0  0  0  0
   13.4193   15.2201   22.6107 O   0  0  0  0  0  0  0  0  0  0  0  0
   11.1616   14.6543   22.3680 C   0  0  1  0  0  0  0  0  0  0  0  0
   11.2708   14.7825   20.8783 C   0  0  0  0  0  0  0  0  0  0  0  0
   10.2199   15.6413   20.3509 C   0  0  0  0  0  0  0  0  0  0  0  0
    9.9305   15.8474   19.0406 C   0  0  0  0  0  0  0  0  0  0  0  0
    9.0875   16.9038   18.9682 O   0  0  0  0  0  0  0  0  0  0  0  0
    8.8727   17.2550   20.2635 C   0  0  0  0  0  0  0  0  0  0  0  0
    9.4926   16.4947   21.1298 N   0  0  0  0  0  0  0  0  0  0  0  0
   10.2728   13.6564   22.8493 N   0  0  0  0  0  0  0  0  0  0  0  0
    9.3207   13.6700   24.0308 C   0  0  0  0  0  0  0  0  0  0  0  0
    9.0444   14.5243   24.7649 O   0  0  0  0  0  0  0  0  0  0  0  0
    8.8199   12.3187   24.2051 C   0  0  0  0  0  0  0  0  0  0  0  0
    9.3563   11.2836   23.5327 N   0  0  0  0  0  0  0  0  0  0  0  0
    8.7576   10.2094   24.0677 N   0  0  0  0  0  0  0  0  0  0  0  0
    9.1850    8.9037   23.6211 C   0  0  0  0  0  0  0  0  0  0  0  0
    7.8107   10.5351   25.0132 C   0  0  0  0  0  0  0  0  0  0  0  0
    6.8953    9.7865   25.7510 C   0  0  0  0  0  0  0  0  0  0  0  0
    6.0613   10.4459   26.6571 C   0  0  0  0  0  0  0  0  0  0  0  0
    6.1292   11.8207   26.8025 C   0  0  0  0  0  0  0  0  0  0  0  0
    5.3286   12.4251   27.6899 F   0  0  0  0  0  0  0  0  0  0  0  0
    7.0071   12.5801   26.0440 C   0  0  0  0  0  0  0  0  0  0  0  0
    7.8442   11.9169   25.1293 C   0  0  0  0  0  0  0  0  0  0  0  0
  1  2  1  0
  2  3  1  0
  3  4  2  0
  3  5  1  0
  5  6  1  6
  6  7  1  0
  7  8  2  0
  8  9  1  0
  9 10  1  0
 10 11  2  0
  5 12  1  0
 12 13  1  0
 13 14  2  0
 13 15  1  0
 15 16  2  0
 16 17  1  0
 17 18  1  0
 17 19  1  0
 19 20  2  0
 20 21  1  0
 21 22  2  0
 22 23  1  0
 22 24  1  0
 24 25  2  0
 11  7  1  0
 25 15  1  0
 25 19  1  0
M  END
>  <energy_score>  (104) 
-24.502232

>  <fragmenstein_runtime>  (104) 
3.887003

>  <HIPPO Pose ID>  (104) 
503423

>  <fragmenstein_error>  (104) 


>  <alias>  (104) 
JWCKBUWRPPQKGH-UHFFFAOYSA-N-P183-P126-P183-601502

>  <orig_smiles>  (104) 
COC(=O)C(Cc1cocn1)NC(=O)c1nn(C)c2ccc(F)cc12

>  <smiles>  (104) 
COC(=O)C(Cc1cocn1)NC(=O)c1nn(C)c2ccc(F)cc12

>  <inchikey>  (104) 
JWCKBUWRPPQKGH-UHFFFAOYSA-N

>  <HIPPO Compound ID>  (104) 
289846

>  <fragmenstein_mode>  (104) 
expansion

>  <fragmenstein_outcome>  (104) 
acceptable

>  <distance_score>  (104) 
0.956078

>  <subsites>  (104) 
None

>  <scratch_subdir>  (104) 
/opt/xchem-fragalysis-2/maxwin/BulkDock/SCRATCH/601502/JWCKBUWRPPQKGH-UHFFFAOYSA-N-P183-P126-P183-601502

>  <inspiration_score>  (104) 
None

>  <name>  (104) 
JWCKBUWRPPQKGH-UHFFFAOYSA-N-P183-P126-P183-601502

>  <ref_mols>  (104) 
A2290a,A3436a

>  <ref_pdb>  (104) 
A0514a

>  <exports>  (104) 
['/opt/xchem-fragalysis-2/maxwin/openbind-hippo/a71ev2a/cycle_01/bulkdock/openbind_a71ev2a_c1_elab_chemspace.sdf', '/opt/xchem-fragalysis-2/maxwin/openbind-hippo/a71ev2a/cycle_01/syndirella/elabs/openbind_a71ev2a_c1_elab_chemspace_filtered.sdf', '/opt/xchem-fragalysis-2/maxwin/BulkDock/OUTPUTS/a71ev2a_c1_elab_bulkdock_input_1GFT2LV.sdf', '/opt/xchem-fragalysis-2/maxwin/openbind-hippo/a71ev2a/cycle_01/syndirella/elabs/ASAP-0031281-001_elabs.sdf']

>  <Energy>  (104) 
96.521996

>  <tags>  (104) 
fragmenstein_placed,a71ev2a_c1_elab_bulkdock_input,BulkDock Fragalysis export,openbind_a71ev2a_c1_elabs_filtered

>  <GNINA pK>  (104) 
nan

$$$$
PBMCPYDYJVOWNM-UHFFFAOYSA-N-P126-P126-P183-601502
     RDKit          3D

 26 28  0  0  0  0  0  0  0  0999 V2000
    3.5947   12.4400   28.8107 C   0  0  0  0  0  0  0  0  0  0  0  0
    4.4659   11.7905   27.8845 O   0  0  0  0  0  0  0  0  0  0  0  0
    5.7059   12.3389   27.8268 C   0  0  0  0  0  0  0  0  0  0  0  0
    6.1141   13.2714   28.4998 O   0  0  0  0  0  0  0  0  0  0  0  0
    6.5293   11.6425   26.8098 C   0  0  0  0  0  0  0  0  0  0  0  0
    6.3039   10.3069   26.4750 C   0  0  0  0  0  0  0  0  0  0  0  0
    7.1069    9.6564   25.5330 C   0  0  0  0  0  0  0  0  0  0  0  0
    8.1350   10.3720   24.9228 C   0  0  0  0  0  0  0  0  0  0  0  0
    8.3905   11.6956   25.2636 C   0  0  0  0  0  0  0  0  0  0  0  0
    7.5857   12.3463   26.2179 C   0  0  0  0  0  0  0  0  0  0  0  0
    9.5315   12.0407   24.5107 C   0  0  0  0  0  0  0  0  0  0  0  0
   10.3200   13.2718   24.5850 C   0  0  0  0  0  0  0  0  0  0  0  0
   10.1457   14.0882   25.3949 O   0  0  0  0  0  0  0  0  0  0  0  0
   11.3349   13.2064   23.4484 N   0  0  0  0  0  0  0  0  0  0  0  0
   12.2854   14.1620   23.0040 C   0  0  0  0  0  0  0  0  0  0  0  0
   12.3590   14.2688   21.5074 C   0  0  0  0  0  0  0  0  0  0  0  0
   11.1610   14.8638   20.8847 C   0  0  0  0  0  0  0  0  0  0  0  0
   10.2344   15.5988   21.5535 N   0  0  0  0  0  0  0  0  0  0  0  0
    9.5683   16.2193   20.5996 C   0  0  0  0  0  0  0  0  0  0  0  0
    8.6042   17.3236   20.7361 C   0  0  0  0  0  0  0  0  0  0  0  0
    9.8860   15.8140   19.3353 O   0  0  0  0  0  0  0  0  0  0  0  0
   10.9235   14.9588   19.5433 C   0  0  0  0  0  0  0  0  0  0  0  0
   11.7058   14.4810   18.4158 C   0  0  0  0  0  0  0  0  0  0  0  0
    9.9022   11.0491   23.6779 N   0  0  0  0  0  0  0  0  0  0  0  0
    9.0602   10.0476   23.9597 N   0  0  0  0  0  0  0  0  0  0  0  0
    9.2336    8.8062   23.2453 C   0  0  0  0  0  0  0  0  0  0  0  0
  1  2  1  0
  2  3  1  0
  3  4  2  0
  3  5  1  0
  5  6  2  0
  6  7  1  0
  7  8  2  0
  8  9  1  0
  9 10  2  0
  9 11  1  0
 11 12  1  0
 12 13  2  0
 12 14  1  0
 14 15  1  0
 15 16  1  0
 16 17  1  0
 17 18  1  0
 18 19  2  0
 19 20  1  0
 19 21  1  0
 21 22  1  0
 22 23  1  0
 11 24  2  0
 24 25  1  0
 25 26  1  0
 10  5  1  0
 22 17  2  0
 25  8  1  0
M  END
>  <energy_score>  (105) 
-14.408142

>  <fragmenstein_runtime>  (105) 
2.855615

>  <HIPPO Pose ID>  (105) 
503424

>  <fragmenstein_error>  (105) 


>  <alias>  (105) 
PBMCPYDYJVOWNM-UHFFFAOYSA-N-P126-P126-P183-601502

>  <orig_smiles>  (105) 
COC(=O)c1ccc2c(c1)c(C(=O)NCCc1nc(C)oc1C)nn2C

>  <smiles>  (105) 
COC(=O)c1ccc2c(c1)c(C(=O)NCCc1nc(C)oc1C)nn2C

>  <inchikey>  (105) 
PBMCPYDYJVOWNM-UHFFFAOYSA-N

>  <HIPPO Compound ID>  (105) 
289847

>  <fragmenstein_mode>  (105) 
expansion

>  <fragmenstein_outcome>  (105) 
acceptable

>  <distance_score>  (105) 
0.730797

>  <subsites>  (105) 
None

>  <scratch_subdir>  (105) 
/opt/xchem-fragalysis-2/maxwin/BulkDock/SCRATCH/601502/PBMCPYDYJVOWNM-UHFFFAOYSA-N-P126-P126-P183-601502

>  <inspiration_score>  (105) 
None

>  <name>  (105) 
PBMCPYDYJVOWNM-UHFFFAOYSA-N-P126-P126-P183-601502

>  <ref_mols>  (105) 
A2290a,A3436a

>  <ref_pdb>  (105) 
A0514a

>  <exports>  (105) 
['/opt/xchem-fragalysis-2/maxwin/openbind-hippo/a71ev2a/cycle_01/syndirella/elabs/openbind_a71ev2a_c1_elab_chemspace_filtered.sdf', '/opt/xchem-fragalysis-2/maxwin/BulkDock/OUTPUTS/a71ev2a_c1_elab_bulkdock_input_1GFT2LV.sdf', '/opt/xchem-fragalysis-2/maxwin/openbind-hippo/a71ev2a/cycle_01/syndirella/elabs/ASAP-0031281-001_elabs.sdf']

>  <Energy>  (105) 
87.663313

>  <tags>  (105) 
fragmenstein_placed,a71ev2a_c1_elab_bulkdock_input,BulkDock Fragalysis export,openbind_a71ev2a_c1_elabs_filtered

>  <GNINA pK>  (105) 
nan

$$$$
PBMCPYDYJVOWNM-UHFFFAOYSA-N-P183-P126-P183-601502
     RDKit          3D

 26 28  0  0  0  0  0  0  0  0999 V2000
    3.2807   12.6624   28.6252 C   0  0  0  0  0  0  0  0  0  0  0  0
    4.2090   11.9906   27.7732 O   0  0  0  0  0  0  0  0  0  0  0  0
    5.3635   12.6775   27.5773 C   0  0  0  0  0  0  0  0  0  0  0  0
    5.6574   13.7473   28.0854 O   0  0  0  0  0  0  0  0  0  0  0  0
    6.2536   11.9391   26.6485 C   0  0  0  0  0  0  0  0  0  0  0  0
    6.1618   10.5563   26.4867 C   0  0  0  0  0  0  0  0  0  0  0  0
    7.0240    9.8738   25.6220 C   0  0  0  0  0  0  0  0  0  0  0  0
    7.9873   10.6014   24.9196 C   0  0  0  0  0  0  0  0  0  0  0  0
    8.1130   11.9744   25.0924 C   0  0  0  0  0  0  0  0  0  0  0  0
    7.2402   12.6582   25.9617 C   0  0  0  0  0  0  0  0  0  0  0  0
    9.2549   12.3219   24.3391 C   0  0  0  0  0  0  0  0  0  0  0  0
   10.0049   13.5789   24.4009 C   0  0  0  0  0  0  0  0  0  0  0  0
    9.7934   14.3837   25.2127 O   0  0  0  0  0  0  0  0  0  0  0  0
   11.0819   13.5198   23.3240 N   0  0  0  0  0  0  0  0  0  0  0  0
   12.0707   14.4747   22.9496 C   0  0  0  0  0  0  0  0  0  0  0  0
   12.2144   14.5822   21.4489 C   0  0  0  0  0  0  0  0  0  0  0  0
   11.0508   15.1947   20.7876 C   0  0  0  0  0  0  0  0  0  0  0  0
   10.1421   15.9422   21.4613 N   0  0  0  0  0  0  0  0  0  0  0  0
    9.4422   16.5158   20.5118 C   0  0  0  0  0  0  0  0  0  0  0  0
    8.4046   17.5253   20.6680 C   0  0  0  0  0  0  0  0  0  0  0  0
    9.7378   16.1057   19.2484 O   0  0  0  0  0  0  0  0  0  0  0  0
   10.7849   15.2646   19.4472 C   0  0  0  0  0  0  0  0  0  0  0  0
   11.4774   14.7481   18.2841 C   0  0  0  0  0  0  0  0  0  0  0  0
    9.6974   11.2895   23.5955 N   0  0  0  0  0  0  0  0  0  0  0  0
    8.9473   10.2521   23.9963 N   0  0  0  0  0  0  0  0  0  0  0  0
    9.2798    8.9446   23.4788 C   0  0  0  0  0  0  0  0  0  0  0  0
  1  2  1  0
  2  3  1  0
  3  4  2  0
  3  5  1  0
  5  6  2  0
  6  7  1  0
  7  8  2  0
  8  9  1  0
  9 10  2  0
  9 11  1  0
 11 12  1  0
 12 13  2  0
 12 14  1  0
 14 15  1  0
 15 16  1  0
 16 17  1  0
 17 18  1  0
 18 19  2  0
 19 20  1  0
 19 21  1  0
 21 22  1  0
 22 23  1  0
 11 24  2  0
 24 25  1  0
 25 26  1  0
 10  5  1  0
 22 17  2  0
 25  8  1  0
M  END
>  <energy_score>  (106) 
-15.582609

>  <fragmenstein_runtime>  (106) 
6.566369

>  <HIPPO Pose ID>  (106) 
503425

>  <fragmenstein_error>  (106) 


>  <alias>  (106) 
PBMCPYDYJVOWNM-UHFFFAOYSA-N-P183-P126-P183-601502

>  <orig_smiles>  (106) 
COC(=O)c1ccc2c(c1)c(C(=O)NCCc1nc(C)oc1C)nn2C

>  <smiles>  (106) 
COC(=O)c1ccc2c(c1)c(C(=O)NCCc1nc(C)oc1C)nn2C

>  <inchikey>  (106) 
PBMCPYDYJVOWNM-UHFFFAOYSA-N

>  <HIPPO Compound ID>  (106) 
289847

>  <fragmenstein_mode>  (106) 
expansion

>  <fragmenstein_outcome>  (106) 
acceptable

>  <distance_score>  (106) 
0.70025

>  <subsites>  (106) 
None

>  <scratch_subdir>  (106) 
/opt/xchem-fragalysis-2/maxwin/BulkDock/SCRATCH/601502/PBMCPYDYJVOWNM-UHFFFAOYSA-N-P183-P126-P183-601502

>  <inspiration_score>  (106) 
None

>  <name>  (106) 
PBMCPYDYJVOWNM-UHFFFAOYSA-N-P183-P126-P183-601502

>  <ref_mols>  (106) 
A2290a,A3436a

>  <ref_pdb>  (106) 
A0514a

>  <exports>  (106) 
['/opt/xchem-fragalysis-2/maxwin/openbind-hippo/a71ev2a/cycle_01/bulkdock/openbind_a71ev2a_c1_elab_chemspace.sdf', '/opt/xchem-fragalysis-2/maxwin/openbind-hippo/a71ev2a/cycle_01/syndirella/elabs/openbind_a71ev2a_c1_elab_chemspace_filtered.sdf', '/opt/xchem-fragalysis-2/maxwin/BulkDock/OUTPUTS/a71ev2a_c1_elab_bulkdock_input_1GFT2LV.sdf', '/opt/xchem-fragalysis-2/maxwin/openbind-hippo/a71ev2a/cycle_01/syndirella/elabs/ASAP-0031281-001_elabs.sdf']

>  <Energy>  (106) 
86.488846

>  <tags>  (106) 
fragmenstein_placed,a71ev2a_c1_elab_bulkdock_input,BulkDock Fragalysis export,openbind_a71ev2a_c1_elabs_filtered

>  <GNINA pK>  (106) 
nan

$$$$
IXNCWEVJUOJTLK-UHFFFAOYSA-N-P126-P126-P183-601502
     RDKit          3D

 26 28  0  0  0  0  0  0  0  0999 V2000
    5.9757   14.9602   22.7891 C   0  0  0  0  0  0  0  0  0  0  0  0
    6.9308   15.5528   23.6652 O   0  0  0  0  0  0  0  0  0  0  0  0
    7.3986   14.7991   24.6996 C   0  0  0  0  0  0  0  0  0  0  0  0
    7.6601   15.3116   25.7872 O   0  0  0  0  0  0  0  0  0  0  0  0
    7.6409   13.3750   24.4648 C   0  0  0  0  0  0  0  0  0  0  0  0
    8.2665   12.8668   23.3809 N   0  0  0  0  0  0  0  0  0  0  0  0
    8.5999   11.6195   23.7965 N   0  0  0  0  0  0  0  0  0  0  0  0
    9.9127   11.1149   23.4677 C   0  0  0  0  0  0  0  0  0  0  0  0
   10.8820   12.1465   24.0366 C   0  0  0  0  0  0  0  0  0  0  0  0
   10.9627   12.3483   25.1781 O   0  0  0  0  0  0  0  0  0  0  0  0
   11.5582   12.8431   22.8578 N   0  0  0  0  0  0  0  0  0  0  0  0
   12.3990   13.9890   22.8202 C   0  0  0  0  0  0  0  0  0  0  0  0
   12.5503   14.5129   21.4279 C   0  0  0  0  0  0  0  0  0  0  0  0
   11.2786   14.9818   20.8480 C   0  0  0  0  0  0  0  0  0  0  0  0
   10.3581   15.6998   21.5357 N   0  0  0  0  0  0  0  0  0  0  0  0
    9.5985   16.2297   20.5977 C   0  0  0  0  0  0  0  0  0  0  0  0
    8.6094   17.3120   20.7354 C   0  0  0  0  0  0  0  0  0  0  0  0
    9.8524   15.7615   19.3388 O   0  0  0  0  0  0  0  0  0  0  0  0
   10.9458   14.9721   19.5246 C   0  0  0  0  0  0  0  0  0  0  0  0
   11.6915   14.4778   18.3804 C   0  0  0  0  0  0  0  0  0  0  0  0
    7.8270   11.1743   24.8330 C   0  0  0  0  0  0  0  0  0  0  0  0
    7.6072    9.9183   25.3852 C   0  0  0  0  0  0  0  0  0  0  0  0
    6.7512    9.8824   26.4889 C   0  0  0  0  0  0  0  0  0  0  0  0
    6.2483   11.0337   27.0860 C   0  0  0  0  0  0  0  0  0  0  0  0
    6.5329   12.2821   26.5505 C   0  0  0  0  0  0  0  0  0  0  0  0
    7.2866   12.3385   25.3684 C   0  0  0  0  0  0  0  0  0  0  0  0
  1  2  1  0
  2  3  1  0
  3  4  2  0
  3  5  1  0
  5  6  2  0
  6  7  1  0
  7  8  1  0
  8  9  1  0
  9 10  2  0
  9 11  1  0
 11 12  1  0
 12 13  1  0
 13 14  1  0
 14 15  1  0
 15 16  2  0
 16 17  1  0
 16 18  1  0
 18 19  1  0
 19 20  1  0
  7 21  1  0
 21 22  2  0
 22 23  1  0
 23 24  2  0
 24 25  1  0
 25 26  2  0
 26  5  1  0
 19 14  2  0
 26 21  1  0
M  END
>  <energy_score>  (107) 
1.781869

>  <fragmenstein_runtime>  (107) 
5.02222

>  <HIPPO Pose ID>  (107) 
503426

>  <fragmenstein_error>  (107) 


>  <alias>  (107) 
IXNCWEVJUOJTLK-UHFFFAOYSA-N-P126-P126-P183-601502

>  <orig_smiles>  (107) 
COC(=O)c1nn(CC(=O)NCCc2nc(C)oc2C)c2ccccc12

>  <smiles>  (107) 
COC(=O)c1nn(CC(=O)NCCc2nc(C)oc2C)c2ccccc12

>  <inchikey>  (107) 
IXNCWEVJUOJTLK-UHFFFAOYSA-N

>  <HIPPO Compound ID>  (107) 
289848

>  <fragmenstein_mode>  (107) 
expansion

>  <fragmenstein_outcome>  (107) 
too moved

>  <distance_score>  (107) 
1.32932

>  <subsites>  (107) 
None

>  <scratch_subdir>  (107) 
/opt/xchem-fragalysis-2/maxwin/BulkDock/SCRATCH/601502/IXNCWEVJUOJTLK-UHFFFAOYSA-N-P126-P126-P183-601502

>  <inspiration_score>  (107) 
None

>  <name>  (107) 
IXNCWEVJUOJTLK-UHFFFAOYSA-N-P126-P126-P183-601502

>  <ref_mols>  (107) 
A2290a,A3436a

>  <ref_pdb>  (107) 
A0514a

>  <exports>  (107) 
['/opt/xchem-fragalysis-2/maxwin/openbind-hippo/a71ev2a/cycle_01/bulkdock/openbind_a71ev2a_c1_elab_chemspace.sdf', '/opt/xchem-fragalysis-2/maxwin/openbind-hippo/a71ev2a/cycle_01/syndirella/elabs/ASAP-0031281-001_elabs.sdf']

>  <Energy>  (107) 
127.081338

>  <tags>  (107) 
fragmenstein_placed,a71ev2a_c1_elab_bulkdock_input

>  <GNINA pK>  (107) 
nan

$$$$
IXNCWEVJUOJTLK-UHFFFAOYSA-N-P183-P126-P183-601502
     RDKit          3D

 26 28  0  0  0  0  0  0  0  0999 V2000
    6.0620   16.5506   27.4595 C   0  0  0  0  0  0  0  0  0  0  0  0
    6.3594   15.2661   26.9130 O   0  0  0  0  0  0  0  0  0  0  0  0
    7.6680   15.0956   26.5537 C   0  0  0  0  0  0  0  0  0  0  0  0
    8.5475   15.9251   26.7780 O   0  0  0  0  0  0  0  0  0  0  0  0
    7.9129   13.7941   25.9157 C   0  0  0  0  0  0  0  0  0  0  0  0
    9.0157   13.5586   25.1789 N   0  0  0  0  0  0  0  0  0  0  0  0
    8.8084   12.3274   24.6636 N   0  0  0  0  0  0  0  0  0  0  0  0
    9.5912   11.8512   23.5549 C   0  0  0  0  0  0  0  0  0  0  0  0
    9.9778   13.0299   22.7218 C   0  0  0  0  0  0  0  0  0  0  0  0
    9.2585   13.5093   21.9377 O   0  0  0  0  0  0  0  0  0  0  0  0
   11.3965   13.4597   23.1798 N   0  0  0  0  0  0  0  0  0  0  0  0
   12.1710   14.6082   22.8391 C   0  0  0  0  0  0  0  0  0  0  0  0
   12.3227   14.7820   21.3485 C   0  0  0  0  0  0  0  0  0  0  0  0
   11.1408   15.3639   20.7014 C   0  0  0  0  0  0  0  0  0  0  0  0
   10.3061   16.2122   21.3479 N   0  0  0  0  0  0  0  0  0  0  0  0
    9.4953   16.6387   20.4108 C   0  0  0  0  0  0  0  0  0  0  0  0
    8.4084   17.5961   20.5562 C   0  0  0  0  0  0  0  0  0  0  0  0
    9.7179   16.1155   19.1726 O   0  0  0  0  0  0  0  0  0  0  0  0
   10.7927   15.3129   19.3812 C   0  0  0  0  0  0  0  0  0  0  0  0
   11.4430   14.7096   18.2394 C   0  0  0  0  0  0  0  0  0  0  0  0
    7.8591   11.6199   25.3299 C   0  0  0  0  0  0  0  0  0  0  0  0
    7.5224   10.2747   25.3158 C   0  0  0  0  0  0  0  0  0  0  0  0
    6.4171    9.9179   26.0828 C   0  0  0  0  0  0  0  0  0  0  0  0
    5.7289   10.8349   26.8687 C   0  0  0  0  0  0  0  0  0  0  0  0
    6.0980   12.1752   26.8775 C   0  0  0  0  0  0  0  0  0  0  0  0
    7.1874   12.5759   26.0895 C   0  0  0  0  0  0  0  0  0  0  0  0
  1  2  1  0
  2  3  1  0
  3  4  2  0
  3  5  1  0
  5  6  2  0
  6  7  1  0
  7  8  1  0
  8  9  1  0
  9 10  2  0
  9 11  1  0
 11 12  1  0
 12 13  1  0
 13 14  1  0
 14 15  1  0
 15 16  2  0
 16 17  1  0
 16 18  1  0
 18 19  1  0
 19 20  1  0
  7 21  1  0
 21 22  2  0
 22 23  1  0
 23 24  2  0
 24 25  1  0
 25 26  2  0
 26  5  1  0
 19 14  2  0
 26 21  1  0
M  END
>  <energy_score>  (108) 
-10.752128

>  <fragmenstein_runtime>  (108) 
7.170036

>  <HIPPO Pose ID>  (108) 
503427

>  <fragmenstein_error>  (108) 


>  <alias>  (108) 
IXNCWEVJUOJTLK-UHFFFAOYSA-N-P183-P126-P183-601502

>  <orig_smiles>  (108) 
COC(=O)c1nn(CC(=O)NCCc2nc(C)oc2C)c2ccccc12

>  <smiles>  (108) 
COC(=O)c1nn(CC(=O)NCCc2nc(C)oc2C)c2ccccc12

>  <inchikey>  (108) 
IXNCWEVJUOJTLK-UHFFFAOYSA-N

>  <HIPPO Compound ID>  (108) 
289848

>  <fragmenstein_mode>  (108) 
expansion

>  <fragmenstein_outcome>  (108) 
too moved

>  <distance_score>  (108) 
1.479117

>  <subsites>  (108) 
None

>  <scratch_subdir>  (108) 
/opt/xchem-fragalysis-2/maxwin/BulkDock/SCRATCH/601502/IXNCWEVJUOJTLK-UHFFFAOYSA-N-P183-P126-P183-601502

>  <inspiration_score>  (108) 
None

>  <name>  (108) 
IXNCWEVJUOJTLK-UHFFFAOYSA-N-P183-P126-P183-601502

>  <ref_mols>  (108) 
A2290a,A3436a

>  <ref_pdb>  (108) 
A0514a

>  <exports>  (108) 
['/opt/xchem-fragalysis-2/maxwin/openbind-hippo/a71ev2a/cycle_01/syndirella/elabs/openbind_a71ev2a_c1_elab_chemspace_filtered.sdf', '/opt/xchem-fragalysis-2/maxwin/openbind-hippo/a71ev2a/cycle_01/syndirella/elabs/ASAP-0031281-001_elabs.sdf']

>  <Energy>  (108) 
114.54734

>  <tags>  (108) 
fragmenstein_placed,openbind_a71ev2a_c1_elabs_filtered,a71ev2a_c1_elab_bulkdock_input

>  <GNINA pK>  (108) 
nan

$$$$
YBFFWHXYRDALLY-UHFFFAOYSA-N-P126-P126-P183-601502
     RDKit          3D

 27 29  0  0  0  0  0  0  0  0999 V2000
   12.6490   12.9985   24.1183 C   0  0  0  0  0  0  0  0  0  0  0  0
   12.8240   13.0612   22.7067 O   0  0  0  0  0  0  0  0  0  0  0  0
   12.5413   14.2552   22.1237 C   0  0  0  0  0  0  0  0  0  0  0  0
   13.4166   15.0278   21.7636 O   0  0  0  0  0  0  0  0  0  0  0  0
   11.0766   14.5380   21.8927 C   0  0  1  0  0  0  0  0  0  0  0  0
   10.8031   14.6666   20.4033 C   0  0  0  0  0  0  0  0  0  0  0  0
    9.9430   15.8266   20.0694 C   0  0  0  0  0  0  0  0  0  0  0  0
    9.8562   16.5394   18.8976 C   0  0  0  0  0  0  0  0  0  0  0  0
    9.0383   17.6045   19.0985 O   0  0  0  0  0  0  0  0  0  0  0  0
    8.6846   17.4913   20.4064 C   0  0  0  0  0  0  0  0  0  0  0  0
    9.1340   16.4114   21.0054 N   0  0  0  0  0  0  0  0  0  0  0  0
   10.2615   13.5255   22.5114 N   0  0  0  0  0  0  0  0  0  0  0  0
    9.4796   13.5456   23.8189 C   0  0  0  0  0  0  0  0  0  0  0  0
    9.3002   14.4075   24.5764 O   0  0  0  0  0  0  0  0  0  0  0  0
    9.0152   12.1927   24.0842 C   0  0  0  0  0  0  0  0  0  0  0  0
    9.5187   11.1434   23.4109 N   0  0  0  0  0  0  0  0  0  0  0  0
    8.9149   10.0857   23.9683 N   0  0  0  0  0  0  0  0  0  0  0  0
    9.3091    8.7674   23.5396 C   0  0  0  0  0  0  0  0  0  0  0  0
    7.9969   10.4263   24.9333 C   0  0  0  0  0  0  0  0  0  0  0  0
    7.0997    9.6777   25.6919 C   0  0  0  0  0  0  0  0  0  0  0  0
    6.2762   10.3443   26.6006 C   0  0  0  0  0  0  0  0  0  0  0  0
    6.3658   11.7299   26.7412 C   0  0  0  0  0  0  0  0  0  0  0  0
    5.4914   12.4051   27.6960 N   0  0  0  0  0  0  0  0  0  0  0  0
    4.3825   11.8961   27.9169 O   0  0  0  0  0  0  0  0  0  0  0  0
    5.9321   13.4199   28.2530 O   0  0  0  0  0  0  0  0  0  0  0  0
    7.2660   12.4867   25.9862 C   0  0  0  0  0  0  0  0  0  0  0  0
    8.0707   11.8070   25.0541 C   0  0  0  0  0  0  0  0  0  0  0  0
  1  2  1  0
  2  3  1  0
  3  4  2  0
  3  5  1  0
  5  6  1  6
  6  7  1  0
  7  8  2  0
  8  9  1  0
  9 10  1  0
 10 11  2  0
  5 12  1  0
 12 13  1  0
 13 14  2  0
 13 15  1  0
 15 16  2  0
 16 17  1  0
 17 18  1  0
 17 19  1  0
 19 20  2  0
 20 21  1  0
 21 22  2  0
 22 23  1  0
 23 24  2  0
 23 25  1  0
 22 26  1  0
 26 27  2  0
 11  7  1  0
 27 15  1  0
 27 19  1  0
M  CHG  2  23   1  25  -1
M  END
>  <energy_score>  (109) 
-10.074535

>  <fragmenstein_runtime>  (109) 
4.346689

>  <HIPPO Pose ID>  (109) 
503428

>  <fragmenstein_error>  (109) 


>  <alias>  (109) 
YBFFWHXYRDALLY-UHFFFAOYSA-N-P126-P126-P183-601502

>  <orig_smiles>  (109) 
COC(=O)C(Cc1cocn1)NC(=O)c1nn(C)c2ccc([N+](=O)[O-])cc12

>  <smiles>  (109) 
COC(=O)C(Cc1cocn1)NC(=O)c1nn(C)c2ccc([N+](=O)[O-])cc12

>  <inchikey>  (109) 
YBFFWHXYRDALLY-UHFFFAOYSA-N

>  <HIPPO Compound ID>  (109) 
289849

>  <fragmenstein_mode>  (109) 
expansion

>  <fragmenstein_outcome>  (109) 
too moved

>  <distance_score>  (109) 
1.007744

>  <subsites>  (109) 
None

>  <scratch_subdir>  (109) 
/opt/xchem-fragalysis-2/maxwin/BulkDock/SCRATCH/601502/YBFFWHXYRDALLY-UHFFFAOYSA-N-P126-P126-P183-601502

>  <inspiration_score>  (109) 
None

>  <name>  (109) 
YBFFWHXYRDALLY-UHFFFAOYSA-N-P126-P126-P183-601502

>  <ref_mols>  (109) 
A2290a,A3436a

>  <ref_pdb>  (109) 
A0514a

>  <exports>  (109) 
['/opt/xchem-fragalysis-2/maxwin/openbind-hippo/a71ev2a/cycle_01/syndirella/elabs/openbind_a71ev2a_c1_elab_chemspace_filtered.sdf', '/opt/xchem-fragalysis-2/maxwin/openbind-hippo/a71ev2a/cycle_01/syndirella/elabs/ASAP-0031281-001_elabs.sdf']

>  <Energy>  (109) 
126.739331

>  <tags>  (109) 
fragmenstein_placed,openbind_a71ev2a_c1_elabs_filtered,a71ev2a_c1_elab_bulkdock_input

>  <GNINA pK>  (109) 
nan

$$$$
YBFFWHXYRDALLY-UHFFFAOYSA-N-P183-P126-P183-601502
     RDKit          3D

 27 29  0  0  0  0  0  0  0  0999 V2000
   13.4571   12.7781   25.0644 C   0  0  0  0  0  0  0  0  0  0  0  0
   12.2667   13.2042   24.4061 O   0  0  0  0  0  0  0  0  0  0  0  0
   12.4077   14.1458   23.4310 C   0  0  0  0  0  0  0  0  0  0  0  0
   13.4556   14.7029   23.1772 O   0  0  0  0  0  0  0  0  0  0  0  0
   11.1903   14.5473   22.6664 C   0  0  1  0  0  0  0  0  0  0  0  0
   11.5437   14.6384   21.1987 C   0  0  0  0  0  0  0  0  0  0  0  0
   10.5221   15.3780   20.4478 C   0  0  0  0  0  0  0  0  0  0  0  0
   10.3406   15.4628   19.0951 C   0  0  0  0  0  0  0  0  0  0  0  0
    9.4107   16.4260   18.8657 O   0  0  0  0  0  0  0  0  0  0  0  0
    9.0846   16.8871   20.1043 C   0  0  0  0  0  0  0  0  0  0  0  0
    9.6830   16.2577   21.0822 N   0  0  0  0  0  0  0  0  0  0  0  0
   10.2342   13.5981   23.0756 N   0  0  0  0  0  0  0  0  0  0  0  0
    9.2240   13.6416   24.2002 C   0  0  0  0  0  0  0  0  0  0  0  0
    8.9522   14.4958   24.9346 O   0  0  0  0  0  0  0  0  0  0  0  0
    8.6622   12.3121   24.2986 C   0  0  0  0  0  0  0  0  0  0  0  0
    9.1922   11.2881   23.6008 N   0  0  0  0  0  0  0  0  0  0  0  0
    8.6288   10.2069   24.1482 N   0  0  0  0  0  0  0  0  0  0  0  0
    9.0867    8.9120   23.7020 C   0  0  0  0  0  0  0  0  0  0  0  0
    7.6743   10.5182   25.0912 C   0  0  0  0  0  0  0  0  0  0  0  0
    6.7656    9.7547   25.8168 C   0  0  0  0  0  0  0  0  0  0  0  0
    5.9166   10.3922   26.7238 C   0  0  0  0  0  0  0  0  0  0  0  0
    5.9705   11.7757   26.8811 C   0  0  0  0  0  0  0  0  0  0  0  0
    5.0666   12.4216   27.8293 N   0  0  0  0  0  0  0  0  0  0  0  0
    3.9817   11.8652   28.0556 O   0  0  0  0  0  0  0  0  0  0  0  0
    5.4605   13.4609   28.3753 O   0  0  0  0  0  0  0  0  0  0  0  0
    6.8598   12.5550   26.1420 C   0  0  0  0  0  0  0  0  0  0  0  0
    7.6910   11.8991   25.2166 C   0  0  0  0  0  0  0  0  0  0  0  0
  1  2  1  0
  2  3  1  0
  3  4  2  0
  3  5  1  0
  5  6  1  6
  6  7  1  0
  7  8  2  0
  8  9  1  0
  9 10  1  0
 10 11  2  0
  5 12  1  0
 12 13  1  0
 13 14  2  0
 13 15  1  0
 15 16  2  0
 16 17  1  0
 17 18  1  0
 17 19  1  0
 19 20  2  0
 20 21  1  0
 21 22  2  0
 22 23  1  0
 23 24  2  0
 23 25  1  0
 22 26  1  0
 26 27  2  0
 11  7  1  0
 27 15  1  0
 27 19  1  0
M  CHG  2  23   1  25  -1
M  END
>  <energy_score>  (110) 
-13.371522

>  <fragmenstein_runtime>  (110) 
4.293243

>  <HIPPO Pose ID>  (110) 
503429

>  <fragmenstein_error>  (110) 


>  <alias>  (110) 
YBFFWHXYRDALLY-UHFFFAOYSA-N-P183-P126-P183-601502

>  <orig_smiles>  (110) 
COC(=O)C(Cc1cocn1)NC(=O)c1nn(C)c2ccc([N+](=O)[O-])cc12

>  <smiles>  (110) 
COC(=O)C(Cc1cocn1)NC(=O)c1nn(C)c2ccc([N+](=O)[O-])cc12

>  <inchikey>  (110) 
YBFFWHXYRDALLY-UHFFFAOYSA-N

>  <HIPPO Compound ID>  (110) 
289849

>  <fragmenstein_mode>  (110) 
expansion

>  <fragmenstein_outcome>  (110) 
acceptable

>  <distance_score>  (110) 
0.989444

>  <subsites>  (110) 
None

>  <scratch_subdir>  (110) 
/opt/xchem-fragalysis-2/maxwin/BulkDock/SCRATCH/601502/YBFFWHXYRDALLY-UHFFFAOYSA-N-P183-P126-P183-601502

>  <inspiration_score>  (110) 
None

>  <name>  (110) 
YBFFWHXYRDALLY-UHFFFAOYSA-N-P183-P126-P183-601502

>  <ref_mols>  (110) 
A2290a,A3436a

>  <ref_pdb>  (110) 
A0514a

>  <exports>  (110) 
['/opt/xchem-fragalysis-2/maxwin/openbind-hippo/a71ev2a/cycle_01/syndirella/elabs/openbind_a71ev2a_c1_elab_chemspace_filtered.sdf', '/opt/xchem-fragalysis-2/maxwin/BulkDock/OUTPUTS/a71ev2a_c1_elab_bulkdock_input_1GFT2LV.sdf', '/opt/xchem-fragalysis-2/maxwin/openbind-hippo/a71ev2a/cycle_01/syndirella/elabs/ASAP-0031281-001_elabs.sdf']

>  <Energy>  (110) 
123.442345

>  <tags>  (110) 
fragmenstein_placed,a71ev2a_c1_elab_bulkdock_input,BulkDock Fragalysis export,openbind_a71ev2a_c1_elabs_filtered

>  <GNINA pK>  (110) 
nan

$$$$
BDZJXODTZAEGRN-UHFFFAOYSA-N-P126-P126-P183-601502
     RDKit          3D

 27 30  0  0  0  0  0  0  0  0999 V2000
    8.6024   17.3310   20.7222 C   0  0  0  0  0  0  0  0  0  0  0  0
    9.5560   16.2369   20.4696 C   0  0  0  0  0  0  0  0  0  0  0  0
   10.3102   15.5984   21.3363 N   0  0  0  0  0  0  0  0  0  0  0  0
   11.1841   14.8905   20.5535 C   0  0  0  0  0  0  0  0  0  0  0  0
   12.4483   14.3449   21.0906 C   0  0  0  0  0  0  0  0  0  0  0  0
   12.5913   14.5773   22.5786 C   0  0  0  0  0  0  0  0  0  0  0  0
   11.7114   13.7131   23.2849 N   0  0  0  0  0  0  0  0  0  0  0  0
   11.1369   13.8194   24.5810 C   0  0  0  0  0  0  0  0  0  0  0  0
   11.3057   14.6255   25.4496 O   0  0  0  0  0  0  0  0  0  0  0  0
   10.1702   12.7271   24.6552 C   0  0  0  0  0  0  0  0  0  0  0  0
   10.4182   11.6898   23.8445 N   0  0  0  0  0  0  0  0  0  0  0  0
    9.3829   10.8840   23.9965 N   0  0  0  0  0  0  0  0  0  0  0  0
    9.3572    9.7543   23.1007 C   0  0  0  0  0  0  0  0  0  0  0  0
    9.9656    8.5904   23.7308 C   0  0  0  0  0  0  0  0  0  0  0  0
    9.1793    7.6934   24.3592 C   0  0  0  0  0  0  0  0  0  0  0  0
    9.6929    6.3238   25.0433 C   0  0  0  0  0  0  0  0  0  0  0  0
   11.0317    6.0783   26.0290 C   0  0  0  0  0  0  0  0  0  0  0  0
   11.7605    7.0814   24.5986 C   0  0  0  0  0  0  0  0  0  0  0  0
   11.2542    8.1757   23.6907 C   0  0  0  0  0  0  0  0  0  0  0  0
    8.5001   11.2893   24.9658 C   0  0  0  0  0  0  0  0  0  0  0  0
    7.3533   10.7095   25.5238 C   0  0  0  0  0  0  0  0  0  0  0  0
    6.6338   11.4594   26.4593 C   0  0  0  0  0  0  0  0  0  0  0  0
    7.0375   12.7438   26.8164 C   0  0  0  0  0  0  0  0  0  0  0  0
    8.1968   13.3060   26.2722 C   0  0  0  0  0  0  0  0  0  0  0  0
    8.9571   12.5523   25.3593 C   0  0  0  0  0  0  0  0  0  0  0  0
   10.7954   14.9871   19.2445 C   0  0  0  0  0  0  0  0  0  0  0  0
    9.7468   15.8520   19.1753 O   0  0  0  0  0  0  0  0  0  0  0  0
  1  2  1  0
  2  3  2  0
  3  4  1  0
  4  5  1  0
  5  6  1  0
  6  7  1  0
  7  8  1  0
  8  9  2  0
  8 10  1  0
 10 11  2  0
 11 12  1  0
 12 13  1  0
 13 14  1  0
 14 15  2  0
 15 16  1  0
 16 17  2  0
 17 18  1  0
 18 19  2  0
 12 20  1  0
 20 21  2  0
 21 22  1  0
 22 23  2  0
 23 24  1  0
 24 25  2  0
  4 26  2  0
 26 27  1  0
 27  2  1  0
 25 10  1  0
 19 14  1  0
 25 20  1  0
M  END
>  <energy_score>  (111) 
240.035965

>  <fragmenstein_runtime>  (111) 
18.25721

>  <HIPPO Pose ID>  (111) 
503430

>  <fragmenstein_error>  (111) 


>  <alias>  (111) 
BDZJXODTZAEGRN-UHFFFAOYSA-N-P126-P126-P183-601502

>  <orig_smiles>  (111) 
Cc1nc(CCNC(=O)c2nn(Cc3ccccc3)c3ccccc23)co1

>  <smiles>  (111) 
Cc1nc(CCNC(=O)c2nn(Cc3ccccc3)c3ccccc23)co1

>  <inchikey>  (111) 
BDZJXODTZAEGRN-UHFFFAOYSA-N

>  <HIPPO Compound ID>  (111) 
289850

>  <fragmenstein_mode>  (111) 
expansion

>  <fragmenstein_outcome>  (111) 
too contorted

>  <distance_score>  (111) 
0.970842

>  <subsites>  (111) 
None

>  <scratch_subdir>  (111) 
/opt/xchem-fragalysis-2/maxwin/BulkDock/SCRATCH/601502/BDZJXODTZAEGRN-UHFFFAOYSA-N-P126-P126-P183-601502

>  <inspiration_score>  (111) 
None

>  <name>  (111) 
BDZJXODTZAEGRN-UHFFFAOYSA-N-P126-P126-P183-601502

>  <ref_mols>  (111) 
A2290a,A3436a

>  <ref_pdb>  (111) 
A0514a

>  <exports>  (111) 
['/opt/xchem-fragalysis-2/maxwin/openbind-hippo/a71ev2a/cycle_01/bulkdock/openbind_a71ev2a_c1_elab_chemspace.sdf', '/opt/xchem-fragalysis-2/maxwin/openbind-hippo/a71ev2a/cycle_01/syndirella/elabs/ASAP-0031281-001_elabs.sdf']

>  <Energy>  (111) 
390.129949

>  <tags>  (111) 
fragmenstein_placed,a71ev2a_c1_elab_bulkdock_input

>  <GNINA pK>  (111) 
nan

$$$$
BDZJXODTZAEGRN-UHFFFAOYSA-N-P183-P126-P183-601502
     RDKit          3D

 27 30  0  0  0  0  0  0  0  0999 V2000
    8.5282   17.5516   20.4512 C   0  0  0  0  0  0  0  0  0  0  0  0
    9.4944   16.4563   20.3768 C   0  0  0  0  0  0  0  0  0  0  0  0
   10.0728   15.8373   21.3773 N   0  0  0  0  0  0  0  0  0  0  0  0
   10.9641   14.9998   20.7757 C   0  0  0  0  0  0  0  0  0  0  0  0
   11.9919   14.2986   21.5723 C   0  0  0  0  0  0  0  0  0  0  0  0
   11.9897   14.6243   23.0650 C   0  0  0  0  0  0  0  0  0  0  0  0
   10.8848   14.0944   23.8210 N   0  0  0  0  0  0  0  0  0  0  0  0
   10.3895   14.4318   25.2449 C   0  0  0  0  0  0  0  0  0  0  0  0
   10.8450   15.1365   26.0582 O   0  0  0  0  0  0  0  0  0  0  0  0
    9.1496   13.6818   25.4732 C   0  0  0  0  0  0  0  0  0  0  0  0
    9.1802   12.3804   25.1922 N   0  0  0  0  0  0  0  0  0  0  0  0
    7.9524   11.9267   25.4858 N   0  0  0  0  0  0  0  0  0  0  0  0
    7.5952   10.5452   25.2934 C   0  0  0  0  0  0  0  0  0  0  0  0
    8.4002    9.9624   24.2228 C   0  0  0  0  0  0  0  0  0  0  0  0
    8.5765    8.6056   24.2107 C   0  0  0  0  0  0  0  0  0  0  0  0
    9.5163    8.0410   23.4070 C   0  0  0  0  0  0  0  0  0  0  0  0
   10.2243    8.8636   22.5990 C   0  0  0  0  0  0  0  0  0  0  0  0
    9.9212   10.1917   22.4696 C   0  0  0  0  0  0  0  0  0  0  0  0
    8.9716   10.7379   23.2417 C   0  0  0  0  0  0  0  0  0  0  0  0
    7.1546   12.8339   26.0797 C   0  0  0  0  0  0  0  0  0  0  0  0
    5.8851   12.6871   26.6307 C   0  0  0  0  0  0  0  0  0  0  0  0
    5.3449   13.8196   27.2084 C   0  0  0  0  0  0  0  0  0  0  0  0
    6.0517   15.0222   27.2141 C   0  0  0  0  0  0  0  0  0  0  0  0
    7.3294   15.1402   26.6503 C   0  0  0  0  0  0  0  0  0  0  0  0
    7.9028   14.0098   26.0727 C   0  0  0  0  0  0  0  0  0  0  0  0
   10.7928   15.0552   19.4105 C   0  0  0  0  0  0  0  0  0  0  0  0
    9.8363   15.9887   19.1432 O   0  0  0  0  0  0  0  0  0  0  0  0
  1  2  1  0
  2  3  2  0
  3  4  1  0
  4  5  1  0
  5  6  1  0
  6  7  1  0
  7  8  1  0
  8  9  2  0
  8 10  1  0
 10 11  2  0
 11 12  1  0
 12 13  1  0
 13 14  1  0
 14 15  2  0
 15 16  1  0
 16 17  2  0
 17 18  1  0
 18 19  2  0
 12 20  1  0
 20 21  2  0
 21 22  1  0
 22 23  2  0
 23 24  1  0
 24 25  2  0
  4 26  2  0
 26 27  1  0
 27  2  1  0
 25 10  1  0
 19 14  1  0
 25 20  1  0
M  END
>  <energy_score>  (112) 
2.850554

>  <fragmenstein_runtime>  (112) 
10.868622

>  <HIPPO Pose ID>  (112) 
503431

>  <fragmenstein_error>  (112) 


>  <alias>  (112) 
BDZJXODTZAEGRN-UHFFFAOYSA-N-P183-P126-P183-601502

>  <orig_smiles>  (112) 
Cc1nc(CCNC(=O)c2nn(Cc3ccccc3)c3ccccc23)co1

>  <smiles>  (112) 
Cc1nc(CCNC(=O)c2nn(Cc3ccccc3)c3ccccc23)co1

>  <inchikey>  (112) 
BDZJXODTZAEGRN-UHFFFAOYSA-N

>  <HIPPO Compound ID>  (112) 
289850

>  <fragmenstein_mode>  (112) 
expansion

>  <fragmenstein_outcome>  (112) 
too moved

>  <distance_score>  (112) 
2.30918

>  <subsites>  (112) 
None

>  <scratch_subdir>  (112) 
/opt/xchem-fragalysis-2/maxwin/BulkDock/SCRATCH/601502/BDZJXODTZAEGRN-UHFFFAOYSA-N-P183-P126-P183-601502

>  <inspiration_score>  (112) 
None

>  <name>  (112) 
BDZJXODTZAEGRN-UHFFFAOYSA-N-P183-P126-P183-601502

>  <ref_mols>  (112) 
A2290a,A3436a

>  <ref_pdb>  (112) 
A0514a

>  <exports>  (112) 
['/opt/xchem-fragalysis-2/maxwin/openbind-hippo/a71ev2a/cycle_01/syndirella/elabs/ASAP-0031281-001_elabs.sdf']

>  <Energy>  (112) 
148.242874

>  <tags>  (112) 
fragmenstein_placed,a71ev2a_c1_elab_bulkdock_input

>  <GNINA pK>  (112) 
nan

$$$$
LXJABMRHPGHKIS-UHFFFAOYSA-N-P126-P126-P183-601502
     RDKit          3D

 27 30  0  0  0  0  0  0  0  0999 V2000
    9.0008    8.6653   23.6680 C   0  0  0  0  0  0  0  0  0  0  0  0
    8.8292   10.0285   24.0923 N   0  0  0  0  0  0  0  0  0  0  0  0
    9.6876   10.9304   23.6275 N   0  0  0  0  0  0  0  0  0  0  0  0
    9.4839   12.0141   24.4008 C   0  0  0  0  0  0  0  0  0  0  0  0
   10.4792   13.0890   24.3643 C   0  0  0  0  0  0  0  0  0  0  0  0
   10.5342   13.9584   25.1363 O   0  0  0  0  0  0  0  0  0  0  0  0
   11.4091   12.7317   23.2062 N   0  0  0  0  0  0  0  0  0  0  0  0
   12.6418   13.2995   22.8077 C   0  0  0  0  0  0  0  0  0  0  0  0
   12.5259   14.6812   22.2401 C   0  0  0  0  0  0  0  0  0  0  0  0
   11.5883   14.7797   21.1289 C   0  0  0  0  0  0  0  0  0  0  0  0
   11.7297   14.4392   19.8106 C   0  0  0  0  0  0  0  0  0  0  0  0
   10.7213   15.0290   19.1313 O   0  0  0  0  0  0  0  0  0  0  0  0
   10.0599   15.7231   20.0949 C   0  0  0  0  0  0  0  0  0  0  0  0
    9.3005   16.8491   19.6580 C   0  0  0  0  0  0  0  0  0  0  0  0
    8.7671   17.7033   20.6076 C   0  0  0  0  0  0  0  0  0  0  0  0
    8.0275   18.7856   20.2289 C   0  0  0  0  0  0  0  0  0  0  0  0
    7.6689   18.9110   18.9205 C   0  0  0  0  0  0  0  0  0  0  0  0
    8.2441   18.1142   17.9534 C   0  0  0  0  0  0  0  0  0  0  0  0
    9.1213   17.1298   18.3181 C   0  0  0  0  0  0  0  0  0  0  0  0
   10.4276   15.4551   21.3228 N   0  0  0  0  0  0  0  0  0  0  0  0
    8.3540   11.8521   25.2288 C   0  0  0  0  0  0  0  0  0  0  0  0
    7.6719   12.6502   26.1602 C   0  0  0  0  0  0  0  0  0  0  0  0
    6.6191   12.0779   26.8665 C   0  0  0  0  0  0  0  0  0  0  0  0
    5.9633   12.8139   27.7740 F   0  0  0  0  0  0  0  0  0  0  0  0
    6.2482   10.7521   26.6805 C   0  0  0  0  0  0  0  0  0  0  0  0
    6.9193    9.9458   25.7599 C   0  0  0  0  0  0  0  0  0  0  0  0
    7.9670   10.5247   25.0377 C   0  0  0  0  0  0  0  0  0  0  0  0
  1  2  1  0
  2  3  1  0
  3  4  2  0
  4  5  1  0
  5  6  2  0
  5  7  1  0
  7  8  1  0
  8  9  1  0
  9 10  1  0
 10 11  2  0
 11 12  1  0
 12 13  1  0
 13 14  1  0
 14 15  2  0
 15 16  1  0
 16 17  2  0
 17 18  1  0
 18 19  2  0
 13 20  2  0
  4 21  1  0
 21 22  2  0
 22 23  1  0
 23 24  1  0
 23 25  2  0
 25 26  1  0
 26 27  2  0
 27  2  1  0
 20 10  1  0
 27 21  1  0
 19 14  1  0
M  END
>  <energy_score>  (113) 
-25.070029

>  <fragmenstein_runtime>  (113) 
11.213919

>  <HIPPO Pose ID>  (113) 
503432

>  <fragmenstein_error>  (113) 


>  <alias>  (113) 
LXJABMRHPGHKIS-UHFFFAOYSA-N-P126-P126-P183-601502

>  <orig_smiles>  (113) 
Cn1nc(C(=O)NCCc2coc(-c3ccccc3)n2)c2cc(F)ccc21

>  <smiles>  (113) 
Cn1nc(C(=O)NCCc2coc(-c3ccccc3)n2)c2cc(F)ccc21

>  <inchikey>  (113) 
LXJABMRHPGHKIS-UHFFFAOYSA-N

>  <HIPPO Compound ID>  (113) 
289851

>  <fragmenstein_mode>  (113) 
expansion

>  <fragmenstein_outcome>  (113) 
acceptable

>  <distance_score>  (113) 
0.960645

>  <subsites>  (113) 
None

>  <scratch_subdir>  (113) 
/opt/xchem-fragalysis-2/maxwin/BulkDock/SCRATCH/601502/LXJABMRHPGHKIS-UHFFFAOYSA-N-P126-P126-P183-601502

>  <inspiration_score>  (113) 
None

>  <name>  (113) 
LXJABMRHPGHKIS-UHFFFAOYSA-N-P126-P126-P183-601502

>  <ref_mols>  (113) 
A2290a,A3436a

>  <ref_pdb>  (113) 
A0514a

>  <exports>  (113) 
['/opt/xchem-fragalysis-2/maxwin/openbind-hippo/a71ev2a/cycle_01/syndirella/elabs/openbind_a71ev2a_c1_elab_chemspace_filtered.sdf', '/opt/xchem-fragalysis-2/maxwin/BulkDock/OUTPUTS/a71ev2a_c1_elab_bulkdock_input_1GFT2LV.sdf', '/opt/xchem-fragalysis-2/maxwin/openbind-hippo/a71ev2a/cycle_01/syndirella/elabs/ASAP-0031281-001_elabs.sdf']

>  <Energy>  (113) 
108.230621

>  <tags>  (113) 
fragmenstein_placed,a71ev2a_c1_elab_bulkdock_input,BulkDock Fragalysis export,openbind_a71ev2a_c1_elabs_filtered

>  <GNINA pK>  (113) 
nan

$$$$
LXJABMRHPGHKIS-UHFFFAOYSA-N-P183-P126-P183-601502
     RDKit          3D

 27 30  0  0  0  0  0  0  0  0999 V2000
    9.3144    8.9273   23.4456 C   0  0  0  0  0  0  0  0  0  0  0  0
    9.0120   10.2534   23.9352 N   0  0  0  0  0  0  0  0  0  0  0  0
    9.7675   11.2709   23.4937 N   0  0  0  0  0  0  0  0  0  0  0  0
    9.3595   12.3294   24.2170 C   0  0  0  0  0  0  0  0  0  0  0  0
   10.1206   13.5847   24.2164 C   0  0  0  0  0  0  0  0  0  0  0  0
    9.9661   14.3960   25.0348 O   0  0  0  0  0  0  0  0  0  0  0  0
   11.0903   13.5374   23.0418 N   0  0  0  0  0  0  0  0  0  0  0  0
   12.0153   14.5151   22.5602 C   0  0  0  0  0  0  0  0  0  0  0  0
   12.3829   14.2698   21.1109 C   0  0  0  0  0  0  0  0  0  0  0  0
   11.3457   14.5838   20.1384 C   0  0  0  0  0  0  0  0  0  0  0  0
   11.4470   14.7893   18.7870 C   0  0  0  0  0  0  0  0  0  0  0  0
   10.3371   15.4629   18.4073 O   0  0  0  0  0  0  0  0  0  0  0  0
    9.6466   15.5654   19.5595 C   0  0  0  0  0  0  0  0  0  0  0  0
    9.0222   16.8201   19.7552 C   0  0  0  0  0  0  0  0  0  0  0  0
    9.2599   17.3682   20.9598 C   0  0  0  0  0  0  0  0  0  0  0  0
    8.8490   18.6356   21.1596 C   0  0  0  0  0  0  0  0  0  0  0  0
    8.1018   19.3259   20.2391 C   0  0  0  0  0  0  0  0  0  0  0  0
    7.7979   18.7775   19.0445 C   0  0  0  0  0  0  0  0  0  0  0  0
    8.3265   17.5397   18.8102 C   0  0  0  0  0  0  0  0  0  0  0  0
   10.0793   14.8178   20.5437 N   0  0  0  0  0  0  0  0  0  0  0  0
    8.2221   12.0186   24.9949 C   0  0  0  0  0  0  0  0  0  0  0  0
    7.3688   12.7411   25.8487 C   0  0  0  0  0  0  0  0  0  0  0  0
    6.4054   12.0436   26.5679 C   0  0  0  0  0  0  0  0  0  0  0  0
    5.6053   12.7072   27.4130 F   0  0  0  0  0  0  0  0  0  0  0  0
    6.2749   10.6677   26.4569 C   0  0  0  0  0  0  0  0  0  0  0  0
    7.1048    9.9439   25.5975 C   0  0  0  0  0  0  0  0  0  0  0  0
    8.0691   10.6412   24.8613 C   0  0  0  0  0  0  0  0  0  0  0  0
  1  2  1  0
  2  3  1  0
  3  4  2  0
  4  5  1  0
  5  6  2  0
  5  7  1  0
  7  8  1  0
  8  9  1  0
  9 10  1  0
 10 11  2  0
 11 12  1  0
 12 13  1  0
 13 14  1  0
 14 15  2  0
 15 16  1  0
 16 17  2  0
 17 18  1  0
 18 19  2  0
 13 20  2  0
  4 21  1  0
 21 22  2  0
 22 23  1  0
 23 24  1  0
 23 25  2  0
 25 26  1  0
 26 27  2  0
 27  2  1  0
 20 10  1  0
 27 21  1  0
 19 14  1  0
M  END
>  <energy_score>  (114) 
-5.81646

>  <fragmenstein_runtime>  (114) 
8.981957

>  <HIPPO Pose ID>  (114) 
503433

>  <fragmenstein_error>  (114) 


>  <alias>  (114) 
LXJABMRHPGHKIS-UHFFFAOYSA-N-P183-P126-P183-601502

>  <orig_smiles>  (114) 
Cn1nc(C(=O)NCCc2coc(-c3ccccc3)n2)c2cc(F)ccc21

>  <smiles>  (114) 
Cn1nc(C(=O)NCCc2coc(-c3ccccc3)n2)c2cc(F)ccc21

>  <inchikey>  (114) 
LXJABMRHPGHKIS-UHFFFAOYSA-N

>  <HIPPO Compound ID>  (114) 
289851

>  <fragmenstein_mode>  (114) 
expansion

>  <fragmenstein_outcome>  (114) 
acceptable

>  <distance_score>  (114) 
0.875497

>  <subsites>  (114) 
None

>  <scratch_subdir>  (114) 
/opt/xchem-fragalysis-2/maxwin/BulkDock/SCRATCH/601502/LXJABMRHPGHKIS-UHFFFAOYSA-N-P183-P126-P183-601502

>  <inspiration_score>  (114) 
None

>  <name>  (114) 
LXJABMRHPGHKIS-UHFFFAOYSA-N-P183-P126-P183-601502

>  <ref_mols>  (114) 
A2290a,A3436a

>  <ref_pdb>  (114) 
A0514a

>  <exports>  (114) 
['/opt/xchem-fragalysis-2/maxwin/openbind-hippo/a71ev2a/cycle_01/bulkdock/openbind_a71ev2a_c1_elab_chemspace.sdf', '/opt/xchem-fragalysis-2/maxwin/openbind-hippo/a71ev2a/cycle_01/syndirella/elabs/openbind_a71ev2a_c1_elab_chemspace_filtered.sdf', '/opt/xchem-fragalysis-2/maxwin/BulkDock/OUTPUTS/a71ev2a_c1_elab_bulkdock_input_1GFT2LV.sdf', '/opt/xchem-fragalysis-2/maxwin/openbind-hippo/a71ev2a/cycle_01/syndirella/elabs/ASAP-0031281-001_elabs.sdf']

>  <Energy>  (114) 
127.484191

>  <tags>  (114) 
fragmenstein_placed,a71ev2a_c1_elab_bulkdock_input,BulkDock Fragalysis export,openbind_a71ev2a_c1_elabs_filtered

>  <GNINA pK>  (114) 
nan

$$$$
TUYLGEMPAYKTOK-UHFFFAOYSA-N-P126-P126-P183-601502
     RDKit          3D

 27 30  0  0  0  0  0  0  0  0999 V2000
   11.5396   14.5625   18.6992 C   0  0  0  0  0  0  0  0  0  0  0  0
   10.5320   15.4892   19.2242 C   0  0  0  0  0  0  0  0  0  0  0  0
   10.1202   16.5232   18.4274 O   0  0  0  0  0  0  0  0  0  0  0  0
    9.3189   17.2700   19.2173 C   0  0  0  0  0  0  0  0  0  0  0  0
    9.2077   16.8248   20.4418 N   0  0  0  0  0  0  0  0  0  0  0  0
    9.9090   15.6435   20.4298 C   0  0  0  0  0  0  0  0  0  0  0  0
    9.8037   14.7321   21.5693 C   0  0  0  0  0  0  0  0  0  0  0  0
    8.3046   14.6722   21.8977 C   0  0  0  0  0  0  0  0  0  0  0  0
    8.0102   13.9596   23.0839 N   0  0  0  0  0  0  0  0  0  0  0  0
    7.5764   14.4615   24.4656 C   0  0  0  0  0  0  0  0  0  0  0  0
    7.4653   15.5441   24.8736 O   0  0  0  0  0  0  0  0  0  0  0  0
    7.3023   13.2680   25.2393 C   0  0  0  0  0  0  0  0  0  0  0  0
    7.4927   12.0943   24.6282 N   0  0  0  0  0  0  0  0  0  0  0  0
    7.3123   11.2022   25.5803 N   0  0  0  0  0  0  0  0  0  0  0  0
    7.8420    9.8827   25.4376 C   0  0  0  0  0  0  0  0  0  0  0  0
    8.8653    9.8056   24.3762 C   0  0  0  0  0  0  0  0  0  0  0  0
    8.8282    8.6091   23.7189 C   0  0  0  0  0  0  0  0  0  0  0  0
    9.5470    8.3693   22.6021 C   0  0  0  0  0  0  0  0  0  0  0  0
   10.3021    9.3994   22.1200 C   0  0  0  0  0  0  0  0  0  0  0  0
   10.3883   10.6301   22.7713 C   0  0  0  0  0  0  0  0  0  0  0  0
    9.7381   10.8012   23.9617 C   0  0  0  0  0  0  0  0  0  0  0  0
    6.8066   11.6987   26.7289 C   0  0  0  0  0  0  0  0  0  0  0  0
    6.3649   11.0612   27.8817 C   0  0  0  0  0  0  0  0  0  0  0  0
    6.0100   11.8987   28.9283 C   0  0  0  0  0  0  0  0  0  0  0  0
    6.1078   13.2882   28.8119 C   0  0  0  0  0  0  0  0  0  0  0  0
    6.5409   13.9004   27.6336 C   0  0  0  0  0  0  0  0  0  0  0  0
    6.8779   13.0765   26.5634 C   0  0  0  0  0  0  0  0  0  0  0  0
  1  2  1  0
  2  3  1  0
  3  4  1  0
  4  5  2  0
  5  6  1  0
  6  7  1  0
  7  8  1  0
  8  9  1  0
  9 10  1  0
 10 11  2  0
 10 12  1  0
 12 13  2  0
 13 14  1  0
 14 15  1  0
 15 16  1  0
 16 17  2  0
 17 18  1  0
 18 19  2  0
 19 20  1  0
 20 21  2  0
 14 22  1  0
 22 23  2  0
 23 24  1  0
 24 25  2  0
 25 26  1  0
 26 27  2  0
  6  2  2  0
 27 12  1  0
 21 16  1  0
 27 22  1  0
M  END
>  <energy_score>  (115) 
-2.207246

>  <fragmenstein_runtime>  (115) 
13.40955

>  <HIPPO Pose ID>  (115) 
503434

>  <fragmenstein_error>  (115) 


>  <alias>  (115) 
TUYLGEMPAYKTOK-UHFFFAOYSA-N-P126-P126-P183-601502

>  <orig_smiles>  (115) 
Cc1ocnc1CCNC(=O)c1nn(Cc2ccccc2)c2ccccc12

>  <smiles>  (115) 
Cc1ocnc1CCNC(=O)c1nn(Cc2ccccc2)c2ccccc12

>  <inchikey>  (115) 
TUYLGEMPAYKTOK-UHFFFAOYSA-N

>  <HIPPO Compound ID>  (115) 
289852

>  <fragmenstein_mode>  (115) 
expansion

>  <fragmenstein_outcome>  (115) 
too moved

>  <distance_score>  (115) 
2.717559

>  <subsites>  (115) 
None

>  <scratch_subdir>  (115) 
/opt/xchem-fragalysis-2/maxwin/BulkDock/SCRATCH/601502/TUYLGEMPAYKTOK-UHFFFAOYSA-N-P126-P126-P183-601502

>  <inspiration_score>  (115) 
None

>  <name>  (115) 
TUYLGEMPAYKTOK-UHFFFAOYSA-N-P126-P126-P183-601502

>  <ref_mols>  (115) 
A2290a,A3436a

>  <ref_pdb>  (115) 
A0514a

>  <exports>  (115) 
['/opt/xchem-fragalysis-2/maxwin/openbind-hippo/a71ev2a/cycle_01/bulkdock/openbind_a71ev2a_c1_elab_chemspace.sdf', '/opt/xchem-fragalysis-2/maxwin/openbind-hippo/a71ev2a/cycle_01/syndirella/elabs/ASAP-0031281-001_elabs.sdf']

>  <Energy>  (115) 
140.022417

>  <tags>  (115) 
fragmenstein_placed,a71ev2a_c1_elab_bulkdock_input

>  <GNINA pK>  (115) 
nan

$$$$
TUYLGEMPAYKTOK-UHFFFAOYSA-N-P183-P126-P183-601502
     RDKit          3D

 27 30  0  0  0  0  0  0  0  0999 V2000
   11.3236   14.6228   18.7744 C   0  0  0  0  0  0  0  0  0  0  0  0
   10.4821   15.5763   19.4883 C   0  0  0  0  0  0  0  0  0  0  0  0
    9.9117   16.5631   18.7449 O   0  0  0  0  0  0  0  0  0  0  0  0
    9.2810   17.3627   19.6418 C   0  0  0  0  0  0  0  0  0  0  0  0
    9.4029   16.9684   20.8739 N   0  0  0  0  0  0  0  0  0  0  0  0
   10.0332   15.7550   20.7677 C   0  0  0  0  0  0  0  0  0  0  0  0
    9.8402   14.8136   21.8698 C   0  0  0  0  0  0  0  0  0  0  0  0
    8.3008   14.7809   22.0229 C   0  0  0  0  0  0  0  0  0  0  0  0
    7.8247   14.1076   23.1665 N   0  0  0  0  0  0  0  0  0  0  0  0
    7.4449   14.6447   24.5559 C   0  0  0  0  0  0  0  0  0  0  0  0
    7.3915   15.7370   24.9541 O   0  0  0  0  0  0  0  0  0  0  0  0
    7.0840   13.4676   25.3162 C   0  0  0  0  0  0  0  0  0  0  0  0
    7.2307   12.2967   24.6890 N   0  0  0  0  0  0  0  0  0  0  0  0
    6.9702   11.3976   25.6111 N   0  0  0  0  0  0  0  0  0  0  0  0
    7.4953   10.0716   25.5035 C   0  0  0  0  0  0  0  0  0  0  0  0
    8.5489    9.9210   24.4837 C   0  0  0  0  0  0  0  0  0  0  0  0
    8.6476    8.6414   24.0015 C   0  0  0  0  0  0  0  0  0  0  0  0
    9.3316    8.3629   22.8688 C   0  0  0  0  0  0  0  0  0  0  0  0
    9.9440    9.4075   22.2342 C   0  0  0  0  0  0  0  0  0  0  0  0
    9.9608   10.6897   22.7706 C   0  0  0  0  0  0  0  0  0  0  0  0
    9.3449   10.9228   23.9577 C   0  0  0  0  0  0  0  0  0  0  0  0
    6.4313   11.9014   26.7426 C   0  0  0  0  0  0  0  0  0  0  0  0
    5.8958   11.2655   27.8556 C   0  0  0  0  0  0  0  0  0  0  0  0
    5.5994   12.0929   28.9268 C   0  0  0  0  0  0  0  0  0  0  0  0
    5.8234   13.4715   28.8627 C   0  0  0  0  0  0  0  0  0  0  0  0
    6.3250   14.0867   27.7130 C   0  0  0  0  0  0  0  0  0  0  0  0
    6.6182   13.2736   26.6235 C   0  0  0  0  0  0  0  0  0  0  0  0
  1  2  1  0
  2  3  1  0
  3  4  1  0
  4  5  2  0
  5  6  1  0
  6  7  1  0
  7  8  1  0
  8  9  1  0
  9 10  1  0
 10 11  2  0
 10 12  1  0
 12 13  2  0
 13 14  1  0
 14 15  1  0
 15 16  1  0
 16 17  2  0
 17 18  1  0
 18 19  2  0
 19 20  1  0
 20 21  2  0
 14 22  1  0
 22 23  2  0
 23 24  1  0
 24 25  2  0
 25 26  1  0
 26 27  2  0
  6  2  2  0
 27 12  1  0
 21 16  1  0
 27 22  1  0
M  END
>  <energy_score>  (116) 
10.112545

>  <fragmenstein_runtime>  (116) 
14.250111

>  <HIPPO Pose ID>  (116) 
503435

>  <fragmenstein_error>  (116) 


>  <alias>  (116) 
TUYLGEMPAYKTOK-UHFFFAOYSA-N-P183-P126-P183-601502

>  <orig_smiles>  (116) 
Cc1ocnc1CCNC(=O)c1nn(Cc2ccccc2)c2ccccc12

>  <smiles>  (116) 
Cc1ocnc1CCNC(=O)c1nn(Cc2ccccc2)c2ccccc12

>  <inchikey>  (116) 
TUYLGEMPAYKTOK-UHFFFAOYSA-N

>  <HIPPO Compound ID>  (116) 
289852

>  <fragmenstein_mode>  (116) 
expansion

>  <fragmenstein_outcome>  (116) 
too moved

>  <distance_score>  (116) 
2.89557

>  <subsites>  (116) 
None

>  <scratch_subdir>  (116) 
/opt/xchem-fragalysis-2/maxwin/BulkDock/SCRATCH/601502/TUYLGEMPAYKTOK-UHFFFAOYSA-N-P183-P126-P183-601502

>  <inspiration_score>  (116) 
None

>  <name>  (116) 
TUYLGEMPAYKTOK-UHFFFAOYSA-N-P183-P126-P183-601502

>  <ref_mols>  (116) 
A2290a,A3436a

>  <ref_pdb>  (116) 
A0514a

>  <exports>  (116) 
['/opt/xchem-fragalysis-2/maxwin/openbind-hippo/a71ev2a/cycle_01/syndirella/elabs/ASAP-0031281-001_elabs.sdf']

>  <Energy>  (116) 
152.342208

>  <tags>  (116) 
fragmenstein_placed,a71ev2a_c1_elab_bulkdock_input

>  <GNINA pK>  (116) 
nan

$$$$
RQYODYAUANDZJE-UHFFFAOYSA-N-P126-P126-P183-601502
     RDKit          3D

 27 30  0  0  0  0  0  0  0  0999 V2000
   11.6791   14.5256   18.5548 C   0  0  0  0  0  0  0  0  0  0  0  0
   10.8406   14.9404   19.6746 C   0  0  0  0  0  0  0  0  0  0  0  0
    9.8114   15.8032   19.4461 O   0  0  0  0  0  0  0  0  0  0  0  0
    9.3273   16.0442   20.6916 C   0  0  0  0  0  0  0  0  0  0  0  0
    9.8942   15.3443   21.6501 N   0  0  0  0  0  0  0  0  0  0  0  0
   10.9296   14.7145   21.0229 C   0  0  0  0  0  0  0  0  0  0  0  0
   12.0116   14.0026   21.7365 C   0  0  0  0  0  0  0  0  0  0  0  0
   12.0612   14.2908   23.2203 C   0  0  0  0  0  0  0  0  0  0  0  0
   11.0306   13.6454   23.9736 N   0  0  0  0  0  0  0  0  0  0  0  0
   10.3929   14.0218   25.3249 C   0  0  0  0  0  0  0  0  0  0  0  0
   10.6593   14.8748   26.0762 O   0  0  0  0  0  0  0  0  0  0  0  0
    9.3145   13.0610   25.5413 C   0  0  0  0  0  0  0  0  0  0  0  0
    9.5015   11.8214   25.0703 N   0  0  0  0  0  0  0  0  0  0  0  0
    8.4087   11.1664   25.4434 N   0  0  0  0  0  0  0  0  0  0  0  0
    8.2187    9.8432   24.9638 C   0  0  0  0  0  0  0  0  0  0  0  0
    8.7691    9.7649   23.5991 C   0  0  1  0  0  0  0  0  0  0  0  0
   10.2397    9.6372   23.4213 C   0  0  0  0  0  0  0  0  0  0  0  0
   10.3144    8.6642   22.4140 N   0  0  0  0  0  0  0  0  0  0  0  0
    9.1624    7.9421   22.4280 C   0  0  0  0  0  0  0  0  0  0  0  0
    8.9256    6.8591   21.9613 O   0  0  0  0  0  0  0  0  0  0  0  0
    8.2316    8.5626   23.1526 O   0  0  0  0  0  0  0  0  0  0  0  0
    7.5136   11.8855   26.1501 C   0  0  0  0  0  0  0  0  0  0  0  0
    6.2894   11.5282   26.7132 C   0  0  0  0  0  0  0  0  0  0  0  0
    5.5939   12.5419   27.3553 C   0  0  0  0  0  0  0  0  0  0  0  0
    6.1105   13.8368   27.4203 C   0  0  0  0  0  0  0  0  0  0  0  0
    7.3485   14.1668   26.8551 C   0  0  0  0  0  0  0  0  0  0  0  0
    8.0676   13.1608   26.2072 C   0  0  0  0  0  0  0  0  0  0  0  0
  1  2  1  0
  2  3  1  0
  3  4  1  0
  4  5  2  0
  5  6  1  0
  6  7  1  0
  7  8  1  0
  8  9  1  0
  9 10  1  0
 10 11  2  0
 10 12  1  0
 12 13  2  0
 13 14  1  0
 14 15  1  0
 16 15  1  1
 16 17  1  0
 17 18  1  0
 18 19  1  0
 19 20  2  0
 19 21  1  0
 14 22  1  0
 22 23  2  0
 23 24  1  0
 24 25  2  0
 25 26  1  0
 26 27  2  0
  6  2  2  0
 27 12  1  0
 21 16  1  0
 27 22  1  0
M  END
>  <energy_score>  (117) 
-3.619421

>  <fragmenstein_runtime>  (117) 
8.475266

>  <HIPPO Pose ID>  (117) 
503436

>  <fragmenstein_error>  (117) 


>  <alias>  (117) 
RQYODYAUANDZJE-UHFFFAOYSA-N-P126-P126-P183-601502

>  <orig_smiles>  (117) 
Cc1ocnc1CCNC(=O)c1nn(CC2CNC(=O)O2)c2ccccc12

>  <smiles>  (117) 
Cc1ocnc1CCNC(=O)c1nn(CC2CNC(=O)O2)c2ccccc12

>  <inchikey>  (117) 
RQYODYAUANDZJE-UHFFFAOYSA-N

>  <HIPPO Compound ID>  (117) 
289853

>  <fragmenstein_mode>  (117) 
expansion

>  <fragmenstein_outcome>  (117) 
too moved

>  <distance_score>  (117) 
1.838078

>  <subsites>  (117) 
None

>  <scratch_subdir>  (117) 
/opt/xchem-fragalysis-2/maxwin/BulkDock/SCRATCH/601502/RQYODYAUANDZJE-UHFFFAOYSA-N-P126-P126-P183-601502

>  <inspiration_score>  (117) 
None

>  <name>  (117) 
RQYODYAUANDZJE-UHFFFAOYSA-N-P126-P126-P183-601502

>  <ref_mols>  (117) 
A2290a,A3436a

>  <ref_pdb>  (117) 
A0514a

>  <exports>  (117) 
['/opt/xchem-fragalysis-2/maxwin/openbind-hippo/a71ev2a/cycle_01/bulkdock/openbind_a71ev2a_c1_elab_chemspace.sdf', '/opt/xchem-fragalysis-2/maxwin/openbind-hippo/a71ev2a/cycle_01/syndirella/elabs/openbind_a71ev2a_c1_elab_chemspace_filtered.sdf', '/opt/xchem-fragalysis-2/maxwin/openbind-hippo/a71ev2a/cycle_01/syndirella/elabs/ASAP-0031281-001_elabs.sdf']

>  <Energy>  (117) 
45.546685

>  <tags>  (117) 
fragmenstein_placed,openbind_a71ev2a_c1_elabs_filtered,a71ev2a_c1_elab_bulkdock_input

>  <GNINA pK>  (117) 
nan

$$$$
RQYODYAUANDZJE-UHFFFAOYSA-N-P183-P126-P183-601502
     RDKit          3D

 27 30  0  0  0  0  0  0  0  0999 V2000
   11.4024   14.8389   18.3787 C   0  0  0  0  0  0  0  0  0  0  0  0
   10.6404   15.3160   19.5256 C   0  0  0  0  0  0  0  0  0  0  0  0
    9.5771   16.1382   19.3085 O   0  0  0  0  0  0  0  0  0  0  0  0
    9.1506   16.4396   20.5658 C   0  0  0  0  0  0  0  0  0  0  0  0
    9.8130   15.8382   21.5276 N   0  0  0  0  0  0  0  0  0  0  0  0
   10.8186   15.1773   20.8772 C   0  0  0  0  0  0  0  0  0  0  0  0
   11.9503   14.5095   21.5626 C   0  0  0  0  0  0  0  0  0  0  0  0
   11.9325   14.6342   23.0707 C   0  0  0  0  0  0  0  0  0  0  0  0
   10.7916   14.0260   23.6783 N   0  0  0  0  0  0  0  0  0  0  0  0
   10.1704   14.2361   25.0610 C   0  0  0  0  0  0  0  0  0  0  0  0
   10.5304   14.8824   25.9607 O   0  0  0  0  0  0  0  0  0  0  0  0
    8.9643   13.4114   25.1218 C   0  0  0  0  0  0  0  0  0  0  0  0
    8.9406   12.2567   24.4386 N   0  0  0  0  0  0  0  0  0  0  0  0
    7.9333   11.5958   25.0077 N   0  0  0  0  0  0  0  0  0  0  0  0
    7.9997   10.1746   25.0830 C   0  0  0  0  0  0  0  0  0  0  0  0
    8.6670    9.6278   23.9115 C   0  0  1  0  0  0  0  0  0  0  0  0
   10.0888    9.7354   23.5573 C   0  0  0  0  0  0  0  0  0  0  0  0
   10.0967    8.7584   22.5333 N   0  0  0  0  0  0  0  0  0  0  0  0
    9.0268    7.9309   22.7261 C   0  0  0  0  0  0  0  0  0  0  0  0
    8.5896    7.0562   22.0220 O   0  0  0  0  0  0  0  0  0  0  0  0
    8.4244    8.2640   23.8891 O   0  0  0  0  0  0  0  0  0  0  0  0
    7.1572   12.3200   25.8443 C   0  0  0  0  0  0  0  0  0  0  0  0
    6.0451   11.9552   26.6033 C   0  0  0  0  0  0  0  0  0  0  0  0
    5.5584   12.9142   27.4762 C   0  0  0  0  0  0  0  0  0  0  0  0
    6.1724   14.1622   27.5793 C   0  0  0  0  0  0  0  0  0  0  0  0
    7.3016   14.4947   26.8206 C   0  0  0  0  0  0  0  0  0  0  0  0
    7.8054   13.5432   25.9312 C   0  0  0  0  0  0  0  0  0  0  0  0
  1  2  1  0
  2  3  1  0
  3  4  1  0
  4  5  2  0
  5  6  1  0
  6  7  1  0
  7  8  1  0
  8  9  1  0
  9 10  1  0
 10 11  2  0
 10 12  1  0
 12 13  2  0
 13 14  1  0
 14 15  1  0
 16 15  1  1
 16 17  1  0
 17 18  1  0
 18 19  1  0
 19 20  2  0
 19 21  1  0
 14 22  1  0
 22 23  2  0
 23 24  1  0
 24 25  2  0
 25 26  1  0
 26 27  2  0
  6  2  2  0
 27 12  1  0
 21 16  1  0
 27 22  1  0
M  END
>  <energy_score>  (118) 
9.972533

>  <fragmenstein_runtime>  (118) 
6.18915

>  <HIPPO Pose ID>  (118) 
503437

>  <fragmenstein_error>  (118) 


>  <alias>  (118) 
RQYODYAUANDZJE-UHFFFAOYSA-N-P183-P126-P183-601502

>  <orig_smiles>  (118) 
Cc1ocnc1CCNC(=O)c1nn(CC2CNC(=O)O2)c2ccccc12

>  <smiles>  (118) 
Cc1ocnc1CCNC(=O)c1nn(CC2CNC(=O)O2)c2ccccc12

>  <inchikey>  (118) 
RQYODYAUANDZJE-UHFFFAOYSA-N

>  <HIPPO Compound ID>  (118) 
289853

>  <fragmenstein_mode>  (118) 
expansion

>  <fragmenstein_outcome>  (118) 
too moved

>  <distance_score>  (118) 
1.929893

>  <subsites>  (118) 
None

>  <scratch_subdir>  (118) 
/opt/xchem-fragalysis-2/maxwin/BulkDock/SCRATCH/601502/RQYODYAUANDZJE-UHFFFAOYSA-N-P183-P126-P183-601502

>  <inspiration_score>  (118) 
None

>  <name>  (118) 
RQYODYAUANDZJE-UHFFFAOYSA-N-P183-P126-P183-601502

>  <ref_mols>  (118) 
A2290a,A3436a

>  <ref_pdb>  (118) 
A0514a

>  <exports>  (118) 
['/opt/xchem-fragalysis-2/maxwin/openbind-hippo/a71ev2a/cycle_01/syndirella/elabs/ASAP-0031281-001_elabs.sdf']

>  <Energy>  (118) 
59.138639

>  <tags>  (118) 
fragmenstein_placed,a71ev2a_c1_elab_bulkdock_input

>  <GNINA pK>  (118) 
nan

$$$$
RJCGBTDHNBEIKH-UHFFFAOYSA-N-P126-P126-P183-601502
     RDKit          3D

 27 30  0  0  0  0  0  0  0  0999 V2000
    8.3124   18.6306   19.4741 C   0  0  0  0  0  0  0  0  0  0  0  0
    9.0685   17.3922   19.6896 C   0  0  0  0  0  0  0  0  0  0  0  0
    9.3570   16.8192   20.8292 N   0  0  0  0  0  0  0  0  0  0  0  0
   10.0772   15.7128   20.4809 C   0  0  0  0  0  0  0  0  0  0  0  0
   10.3732   14.7237   21.5185 C   0  0  0  0  0  0  0  0  0  0  0  0
    8.9875   14.3195   22.0118 C   0  0  0  0  0  0  0  0  0  0  0  0
    8.9657   13.4975   23.1595 N   0  0  0  0  0  0  0  0  0  0  0  0
    8.7541   13.8527   24.6346 C   0  0  0  0  0  0  0  0  0  0  0  0
    8.6402   14.8877   25.1525 O   0  0  0  0  0  0  0  0  0  0  0  0
    8.6148   12.5792   25.3062 C   0  0  0  0  0  0  0  0  0  0  0  0
    9.2499   11.4990   24.8287 N   0  0  0  0  0  0  0  0  0  0  0  0
    8.4650   10.4944   25.2177 N   0  0  0  0  0  0  0  0  0  0  0  0
    8.6193    9.2240   24.5875 C   0  0  0  0  0  0  0  0  0  0  0  0
    9.9334    9.0467   23.8766 C   0  0  2  0  0  0  0  0  0  0  0  0
    9.9969    9.8664   22.6296 C   0  0  0  0  0  0  0  0  0  0  0  0
    9.9546    8.8563   21.6607 N   0  0  0  0  0  0  0  0  0  0  0  0
    9.4308    7.7636   22.2580 C   0  0  0  0  0  0  0  0  0  0  0  0
    8.6271    6.9868   21.7989 O   0  0  0  0  0  0  0  0  0  0  0  0
    9.9438    7.6904   23.4852 O   0  0  0  0  0  0  0  0  0  0  0  0
    7.4633   10.8547   26.0648 C   0  0  0  0  0  0  0  0  0  0  0  0
    6.4339   10.1312   26.6604 C   0  0  0  0  0  0  0  0  0  0  0  0
    5.5274   10.8472   27.4381 C   0  0  0  0  0  0  0  0  0  0  0  0
    5.6274   12.2299   27.5785 C   0  0  0  0  0  0  0  0  0  0  0  0
    6.6386   12.9451   26.9398 C   0  0  0  0  0  0  0  0  0  0  0  0
    7.5810   12.2326   26.1930 C   0  0  0  0  0  0  0  0  0  0  0  0
   10.2311   15.6745   19.1255 C   0  0  0  0  0  0  0  0  0  0  0  0
    9.5745   16.7476   18.5982 O   0  0  0  0  0  0  0  0  0  0  0  0
  1  2  1  0
  2  3  2  0
  3  4  1  0
  4  5  1  0
  5  6  1  0
  6  7  1  0
  7  8  1  0
  8  9  2  0
  8 10  1  0
 10 11  2  0
 11 12  1  0
 12 13  1  0
 14 13  1  6
 14 15  1  0
 15 16  1  0
 16 17  1  0
 17 18  2  0
 17 19  1  0
 12 20  1  0
 20 21  2  0
 21 22  1  0
 22 23  2  0
 23 24  1  0
 24 25  2  0
  4 26  2  0
 26 27  1  0
 27  2  1  0
 25 10  1  0
 19 14  1  0
 25 20  1  0
M  END
>  <energy_score>  (119) 
-8.057618

>  <fragmenstein_runtime>  (119) 
11.434121

>  <HIPPO Pose ID>  (119) 
503438

>  <fragmenstein_error>  (119) 


>  <alias>  (119) 
RJCGBTDHNBEIKH-UHFFFAOYSA-N-P126-P126-P183-601502

>  <orig_smiles>  (119) 
Cc1nc(CCNC(=O)c2nn(CC3CNC(=O)O3)c3ccccc23)co1

>  <smiles>  (119) 
Cc1nc(CCNC(=O)c2nn(CC3CNC(=O)O3)c3ccccc23)co1

>  <inchikey>  (119) 
RJCGBTDHNBEIKH-UHFFFAOYSA-N

>  <HIPPO Compound ID>  (119) 
289854

>  <fragmenstein_mode>  (119) 
expansion

>  <fragmenstein_outcome>  (119) 
too moved

>  <distance_score>  (119) 
1.810047

>  <subsites>  (119) 
None

>  <scratch_subdir>  (119) 
/opt/xchem-fragalysis-2/maxwin/BulkDock/SCRATCH/601502/RJCGBTDHNBEIKH-UHFFFAOYSA-N-P126-P126-P183-601502

>  <inspiration_score>  (119) 
None

>  <name>  (119) 
RJCGBTDHNBEIKH-UHFFFAOYSA-N-P126-P126-P183-601502

>  <ref_mols>  (119) 
A2290a,A3436a

>  <ref_pdb>  (119) 
A0514a

>  <exports>  (119) 
['/opt/xchem-fragalysis-2/maxwin/openbind-hippo/a71ev2a/cycle_01/syndirella/elabs/openbind_a71ev2a_c1_elab_chemspace_filtered.sdf', '/opt/xchem-fragalysis-2/maxwin/openbind-hippo/a71ev2a/cycle_01/syndirella/elabs/ASAP-0031281-001_elabs.sdf']

>  <Energy>  (119) 
61.568494

>  <tags>  (119) 
fragmenstein_placed,openbind_a71ev2a_c1_elabs_filtered,a71ev2a_c1_elab_bulkdock_input

>  <GNINA pK>  (119) 
nan

$$$$
RJCGBTDHNBEIKH-UHFFFAOYSA-N-P183-P126-P183-601502
     RDKit          3D

 27 30  0  0  0  0  0  0  0  0999 V2000
    8.4800   17.5695   20.4107 C   0  0  0  0  0  0  0  0  0  0  0  0
    9.4796   16.5186   20.2216 C   0  0  0  0  0  0  0  0  0  0  0  0
   10.1991   15.9400   21.1486 N   0  0  0  0  0  0  0  0  0  0  0  0
   11.0615   15.1435   20.4523 C   0  0  0  0  0  0  0  0  0  0  0  0
   12.2185   14.5309   21.1351 C   0  0  0  0  0  0  0  0  0  0  0  0
   12.3035   14.8883   22.6150 C   0  0  0  0  0  0  0  0  0  0  0  0
   11.2200   14.3407   23.3661 N   0  0  0  0  0  0  0  0  0  0  0  0
   10.8538   14.4971   24.8489 C   0  0  0  0  0  0  0  0  0  0  0  0
   11.3330   15.1594   25.6804 O   0  0  0  0  0  0  0  0  0  0  0  0
    9.6795   13.6541   25.0345 C   0  0  0  0  0  0  0  0  0  0  0  0
    9.6685   12.5201   24.3239 N   0  0  0  0  0  0  0  0  0  0  0  0
    8.5441   11.9420   24.6813 N   0  0  0  0  0  0  0  0  0  0  0  0
    8.1702   10.7653   23.9872 C   0  0  0  0  0  0  0  0  0  0  0  0
    8.9208    9.5703   24.4096 C   0  0  2  0  0  0  0  0  0  0  0  0
   10.2391    9.5618   23.7355 C   0  0  0  0  0  0  0  0  0  0  0  0
    9.8994    8.9747   22.5105 N   0  0  0  0  0  0  0  0  0  0  0  0
    8.8886    8.0999   22.7513 C   0  0  0  0  0  0  0  0  0  0  0  0
    8.5424    7.1869   22.0369 O   0  0  0  0  0  0  0  0  0  0  0  0
    8.3195    8.3834   23.9595 O   0  0  0  0  0  0  0  0  0  0  0  0
    7.8131   12.5694   25.6210 C   0  0  0  0  0  0  0  0  0  0  0  0
    6.6491   12.1902   26.2967 C   0  0  0  0  0  0  0  0  0  0  0  0
    6.1419   13.1021   27.2074 C   0  0  0  0  0  0  0  0  0  0  0  0
    6.7756   14.3279   27.4104 C   0  0  0  0  0  0  0  0  0  0  0  0
    7.9521   14.6797   26.7281 C   0  0  0  0  0  0  0  0  0  0  0  0
    8.4973   13.7659   25.8203 C   0  0  0  0  0  0  0  0  0  0  0  0
   10.7349   15.1735   19.1185 C   0  0  0  0  0  0  0  0  0  0  0  0
    9.7073   16.0557   18.9591 O   0  0  0  0  0  0  0  0  0  0  0  0
  1  2  1  0
  2  3  2  0
  3  4  1  0
  4  5  1  0
  5  6  1  0
  6  7  1  0
  7  8  1  0
  8  9  2  0
  8 10  1  0
 10 11  2  0
 11 12  1  0
 12 13  1  0
 14 13  1  6
 14 15  1  0
 15 16  1  0
 16 17  1  0
 17 18  2  0
 17 19  1  0
 12 20  1  0
 20 21  2  0
 21 22  1  0
 22 23  2  0
 23 24  1  0
 24 25  2  0
  4 26  2  0
 26 27  1  0
 27  2  1  0
 25 10  1  0
 19 14  1  0
 25 20  1  0
M  END
>  <energy_score>  (120) 
-21.556806

>  <fragmenstein_runtime>  (120) 
7.495829

>  <HIPPO Pose ID>  (120) 
503439

>  <fragmenstein_error>  (120) 


>  <alias>  (120) 
RJCGBTDHNBEIKH-UHFFFAOYSA-N-P183-P126-P183-601502

>  <orig_smiles>  (120) 
Cc1nc(CCNC(=O)c2nn(CC3CNC(=O)O3)c3ccccc23)co1

>  <smiles>  (120) 
Cc1nc(CCNC(=O)c2nn(CC3CNC(=O)O3)c3ccccc23)co1

>  <inchikey>  (120) 
RJCGBTDHNBEIKH-UHFFFAOYSA-N

>  <HIPPO Compound ID>  (120) 
289854

>  <fragmenstein_mode>  (120) 
expansion

>  <fragmenstein_outcome>  (120) 
too moved

>  <distance_score>  (120) 
1.853263

>  <subsites>  (120) 
None

>  <scratch_subdir>  (120) 
/opt/xchem-fragalysis-2/maxwin/BulkDock/SCRATCH/601502/RJCGBTDHNBEIKH-UHFFFAOYSA-N-P183-P126-P183-601502

>  <inspiration_score>  (120) 
None

>  <name>  (120) 
RJCGBTDHNBEIKH-UHFFFAOYSA-N-P183-P126-P183-601502

>  <ref_mols>  (120) 
A2290a,A3436a

>  <ref_pdb>  (120) 
A0514a

>  <exports>  (120) 
['/opt/xchem-fragalysis-2/maxwin/openbind-hippo/a71ev2a/cycle_01/syndirella/elabs/openbind_a71ev2a_c1_elab_chemspace_filtered.sdf', '/opt/xchem-fragalysis-2/maxwin/openbind-hippo/a71ev2a/cycle_01/syndirella/elabs/ASAP-0031281-001_elabs.sdf']

>  <Energy>  (120) 
48.069306

>  <tags>  (120) 
fragmenstein_placed,openbind_a71ev2a_c1_elabs_filtered,a71ev2a_c1_elab_bulkdock_input

>  <GNINA pK>  (120) 
nan

$$$$
QFEYEOQDTBOXIB-UHFFFAOYSA-N-P126-P126-P183-601502
     RDKit          3D

 27 29  0  0  0  0  0  0  0  0999 V2000
   12.2042   16.2392   21.8538 C   0  0  0  0  0  0  0  0  0  0  0  0
   12.2584   15.4613   22.9882 O   0  0  0  0  0  0  0  0  0  0  0  0
   12.4310   14.1745   22.6605 C   0  0  0  0  0  0  0  0  0  0  0  0
   13.0680   13.4351   23.4182 O   0  0  0  0  0  0  0  0  0  0  0  0
   11.7225   13.6624   21.3977 C   0  0  2  0  0  0  0  0  0  0  0  0
   11.2668   14.3541   20.0890 C   0  0  0  0  0  0  0  0  0  0  0  0
   10.1011   15.2791   20.0190 C   0  0  0  0  0  0  0  0  0  0  0  0
    9.8952   16.2412   19.0512 C   0  0  0  0  0  0  0  0  0  0  0  0
    9.0626   17.1819   19.5635 O   0  0  0  0  0  0  0  0  0  0  0  0
    8.7188   16.6770   20.7770 C   0  0  0  0  0  0  0  0  0  0  0  0
    9.2343   15.4965   21.0581 N   0  0  0  0  0  0  0  0  0  0  0  0
   10.8044   12.8460   22.1095 N   0  0  0  0  0  0  0  0  0  0  0  0
    9.8497   13.1892   23.2640 C   0  0  0  0  0  0  0  0  0  0  0  0
    9.6073   14.2119   23.7646 O   0  0  0  0  0  0  0  0  0  0  0  0
    9.3371   11.9154   23.7201 C   0  0  0  0  0  0  0  0  0  0  0  0
    9.8647   10.8249   23.1567 N   0  0  0  0  0  0  0  0  0  0  0  0
    9.1959    9.7937   23.6746 N   0  0  0  0  0  0  0  0  0  0  0  0
    9.3701    8.5115   22.9885 C   0  0  0  0  0  0  0  0  0  0  0  0
   10.0989    7.6098   23.6736 F   0  0  0  0  0  0  0  0  0  0  0  0
   10.0079    8.6762   21.7992 F   0  0  0  0  0  0  0  0  0  0  0  0
    8.1856    7.9499   22.7146 F   0  0  0  0  0  0  0  0  0  0  0  0
    8.3178   10.2006   24.6607 C   0  0  0  0  0  0  0  0  0  0  0  0
    7.4109    9.5238   25.4697 C   0  0  0  0  0  0  0  0  0  0  0  0
    6.6366   10.2553   26.3771 C   0  0  0  0  0  0  0  0  0  0  0  0
    6.7542   11.6374   26.4704 C   0  0  0  0  0  0  0  0  0  0  0  0
    7.6388   12.3234   25.6394 C   0  0  0  0  0  0  0  0  0  0  0  0
    8.4157   11.5929   24.7231 C   0  0  0  0  0  0  0  0  0  0  0  0
  1  2  1  0
  2  3  1  0
  3  4  2  0
  3  5  1  0
  5  6  1  1
  6  7  1  0
  7  8  2  0
  8  9  1  0
  9 10  1  0
 10 11  2  0
  5 12  1  0
 12 13  1  0
 13 14  2  0
 13 15  1  0
 15 16  2  0
 16 17  1  0
 17 18  1  0
 18 19  1  0
 18 20  1  0
 18 21  1  0
 17 22  1  0
 22 23  2  0
 23 24  1  0
 24 25  2  0
 25 26  1  0
 26 27  2  0
 11  7  1  0
 27 15  1  0
 27 22  1  0
M  END
>  <energy_score>  (121) 
58.525498

>  <fragmenstein_runtime>  (121) 
7.766033

>  <HIPPO Pose ID>  (121) 
503440

>  <fragmenstein_error>  (121) 


>  <alias>  (121) 
QFEYEOQDTBOXIB-UHFFFAOYSA-N-P126-P126-P183-601502

>  <orig_smiles>  (121) 
COC(=O)C(Cc1cocn1)NC(=O)c1nn(C(F)(F)F)c2ccccc12

>  <smiles>  (121) 
COC(=O)C(Cc1cocn1)NC(=O)c1nn(C(F)(F)F)c2ccccc12

>  <inchikey>  (121) 
QFEYEOQDTBOXIB-UHFFFAOYSA-N

>  <HIPPO Compound ID>  (121) 
289855

>  <fragmenstein_mode>  (121) 
expansion

>  <fragmenstein_outcome>  (121) 
too contorted

>  <distance_score>  (121) 
0.82498

>  <subsites>  (121) 
None

>  <scratch_subdir>  (121) 
/opt/xchem-fragalysis-2/maxwin/BulkDock/SCRATCH/601502/QFEYEOQDTBOXIB-UHFFFAOYSA-N-P126-P126-P183-601502

>  <inspiration_score>  (121) 
None

>  <name>  (121) 
QFEYEOQDTBOXIB-UHFFFAOYSA-N-P126-P126-P183-601502

>  <ref_mols>  (121) 
A2290a,A3436a

>  <ref_pdb>  (121) 
A0514a

>  <exports>  (121) 
['/opt/xchem-fragalysis-2/maxwin/openbind-hippo/a71ev2a/cycle_01/syndirella/elabs/ASAP-0031281-001_elabs.sdf']

>  <Energy>  (121) 
231.955755

>  <tags>  (121) 
fragmenstein_placed,a71ev2a_c1_elab_bulkdock_input

>  <GNINA pK>  (121) 
nan

$$$$
QFEYEOQDTBOXIB-UHFFFAOYSA-N-P183-P126-P183-601502
     RDKit          3D

 27 29  0  0  0  0  0  0  0  0999 V2000
   10.1642   17.1614   21.2421 C   0  0  0  0  0  0  0  0  0  0  0  0
   11.4454   16.4958   21.5206 O   0  0  0  0  0  0  0  0  0  0  0  0
   11.6546   15.5905   22.5007 C   0  0  0  0  0  0  0  0  0  0  0  0
   11.5472   15.7989   23.7038 O   0  0  0  0  0  0  0  0  0  0  0  0
   12.1623   14.2517   22.0456 C   0  0  2  0  0  0  0  0  0  0  0  0
   12.2682   14.1817   20.5292 C   0  0  0  0  0  0  0  0  0  0  0  0
   10.9620   14.4901   19.9169 C   0  0  0  0  0  0  0  0  0  0  0  0
   10.6628   15.1700   18.7708 C   0  0  0  0  0  0  0  0  0  0  0  0
    9.3467   15.5310   18.8523 O   0  0  0  0  0  0  0  0  0  0  0  0
    8.9259   14.9970   20.0366 C   0  0  0  0  0  0  0  0  0  0  0  0
    9.8246   14.3115   20.6729 N   0  0  0  0  0  0  0  0  0  0  0  0
   11.2639   13.2641   22.5954 N   0  0  0  0  0  0  0  0  0  0  0  0
   10.6997   13.1102   24.0099 C   0  0  0  0  0  0  0  0  0  0  0  0
   10.9264   13.7084   24.9828 O   0  0  0  0  0  0  0  0  0  0  0  0
    9.6878   12.0697   23.9880 C   0  0  0  0  0  0  0  0  0  0  0  0
    9.8585   10.9877   23.2230 N   0  0  0  0  0  0  0  0  0  0  0  0
    9.0742   10.0633   23.8135 N   0  0  0  0  0  0  0  0  0  0  0  0
    9.3288    8.6461   23.5670 C   0  0  0  0  0  0  0  0  0  0  0  0
   10.6408    8.3267   23.6785 F   0  0  0  0  0  0  0  0  0  0  0  0
    8.9418    8.2324   22.3465 F   0  0  0  0  0  0  0  0  0  0  0  0
    8.6427    7.9178   24.4667 F   0  0  0  0  0  0  0  0  0  0  0  0
    8.1920   10.6228   24.7285 C   0  0  0  0  0  0  0  0  0  0  0  0
    7.1774   10.0994   25.5443 C   0  0  0  0  0  0  0  0  0  0  0  0
    6.4486   10.9799   26.3491 C   0  0  0  0  0  0  0  0  0  0  0  0
    6.7330   12.3404   26.3598 C   0  0  0  0  0  0  0  0  0  0  0  0
    7.7792   12.8496   25.5870 C   0  0  0  0  0  0  0  0  0  0  0  0
    8.5201   11.9734   24.7736 C   0  0  0  0  0  0  0  0  0  0  0  0
  1  2  1  0
  2  3  1  0
  3  4  2  0
  3  5  1  0
  5  6  1  6
  6  7  1  0
  7  8  2  0
  8  9  1  0
  9 10  1  0
 10 11  2  0
  5 12  1  0
 12 13  1  0
 13 14  2  0
 13 15  1  0
 15 16  2  0
 16 17  1  0
 17 18  1  0
 18 19  1  0
 18 20  1  0
 18 21  1  0
 17 22  1  0
 22 23  2  0
 23 24  1  0
 24 25  2  0
 25 26  1  0
 26 27  2  0
 11  7  1  0
 27 15  1  0
 27 22  1  0
M  END
>  <energy_score>  (122) 
45.13694

>  <fragmenstein_runtime>  (122) 
5.816308

>  <HIPPO Pose ID>  (122) 
503441

>  <fragmenstein_error>  (122) 


>  <alias>  (122) 
QFEYEOQDTBOXIB-UHFFFAOYSA-N-P183-P126-P183-601502

>  <orig_smiles>  (122) 
COC(=O)C(Cc1cocn1)NC(=O)c1nn(C(F)(F)F)c2ccccc12

>  <smiles>  (122) 
COC(=O)C(Cc1cocn1)NC(=O)c1nn(C(F)(F)F)c2ccccc12

>  <inchikey>  (122) 
QFEYEOQDTBOXIB-UHFFFAOYSA-N

>  <HIPPO Compound ID>  (122) 
289855

>  <fragmenstein_mode>  (122) 
expansion

>  <fragmenstein_outcome>  (122) 
too contorted

>  <distance_score>  (122) 
0.822563

>  <subsites>  (122) 
None

>  <scratch_subdir>  (122) 
/opt/xchem-fragalysis-2/maxwin/BulkDock/SCRATCH/601502/QFEYEOQDTBOXIB-UHFFFAOYSA-N-P183-P126-P183-601502

>  <inspiration_score>  (122) 
None

>  <name>  (122) 
QFEYEOQDTBOXIB-UHFFFAOYSA-N-P183-P126-P183-601502

>  <ref_mols>  (122) 
A2290a,A3436a

>  <ref_pdb>  (122) 
A0514a

>  <exports>  (122) 
['/opt/xchem-fragalysis-2/maxwin/openbind-hippo/a71ev2a/cycle_01/bulkdock/openbind_a71ev2a_c1_elab_chemspace.sdf', '/opt/xchem-fragalysis-2/maxwin/openbind-hippo/a71ev2a/cycle_01/syndirella/elabs/ASAP-0031281-001_elabs.sdf']

>  <Energy>  (122) 
218.567197

>  <tags>  (122) 
fragmenstein_placed,a71ev2a_c1_elab_bulkdock_input

>  <GNINA pK>  (122) 
nan

$$$$
JWQLFZZVZJQGJI-UHFFFAOYSA-N-P126-P126-P183-601502
     RDKit          3D

 27 30  0  0  0  0  0  0  0  0999 V2000
    9.2111    8.8270   23.2679 C   0  0  0  0  0  0  0  0  0  0  0  0
    9.0203   10.0659   23.9835 N   0  0  0  0  0  0  0  0  0  0  0  0
    9.8466   11.0823   23.7026 N   0  0  0  0  0  0  0  0  0  0  0  0
    9.4519   12.0691   24.5305 C   0  0  0  0  0  0  0  0  0  0  0  0
   10.2169   13.3116   24.6107 C   0  0  0  0  0  0  0  0  0  0  0  0
   10.0558   14.1099   25.4402 O   0  0  0  0  0  0  0  0  0  0  0  0
   11.2007   13.2780   23.4504 N   0  0  0  0  0  0  0  0  0  0  0  0
   12.2538   14.1603   23.1110 C   0  0  0  0  0  0  0  0  0  0  0  0
   12.6443   14.0885   21.6663 C   0  0  0  0  0  0  0  0  0  0  0  0
   11.6389   14.5708   20.7318 C   0  0  0  0  0  0  0  0  0  0  0  0
   11.6654   14.4237   19.3730 C   0  0  0  0  0  0  0  0  0  0  0  0
   10.6409   15.1162   18.8710 O   0  0  0  0  0  0  0  0  0  0  0  0
   10.1037   15.7346   19.9457 C   0  0  0  0  0  0  0  0  0  0  0  0
    9.3095   16.8681   19.6118 C   0  0  0  0  0  0  0  0  0  0  0  0
    9.0644   17.1944   18.2875 C   0  0  0  0  0  0  0  0  0  0  0  0
    8.1857   18.1973   17.9963 C   0  0  0  0  0  0  0  0  0  0  0  0
    7.6581   18.9582   19.0143 C   0  0  0  0  0  0  0  0  0  0  0  0
    8.0656   18.7708   20.3033 C   0  0  0  0  0  0  0  0  0  0  0  0
    8.8152   17.6735   20.6135 C   0  0  0  0  0  0  0  0  0  0  0  0
   10.5933   15.3632   21.1072 N   0  0  0  0  0  0  0  0  0  0  0  0
    8.3207   11.7076   25.2826 C   0  0  0  0  0  0  0  0  0  0  0  0
    7.5066   12.3548   26.2291 C   0  0  0  0  0  0  0  0  0  0  0  0
    6.4836   11.6268   26.8301 C   0  0  0  0  0  0  0  0  0  0  0  0
    5.3739   12.4602   28.1141 Br  0  0  0  0  0  0  0  0  0  0  0  0
    6.2779   10.2892   26.5138 C   0  0  0  0  0  0  0  0  0  0  0  0
    7.0814    9.6473   25.5676 C   0  0  0  0  0  0  0  0  0  0  0  0
    8.0934   10.3770   24.9496 C   0  0  0  0  0  0  0  0  0  0  0  0
  1  2  1  0
  2  3  1  0
  3  4  2  0
  4  5  1  0
  5  6  2  0
  5  7  1  0
  7  8  1  0
  8  9  1  0
  9 10  1  0
 10 11  2  0
 11 12  1  0
 12 13  1  0
 13 14  1  0
 14 15  2  0
 15 16  1  0
 16 17  2  0
 17 18  1  0
 18 19  2  0
 13 20  2  0
  4 21  1  0
 21 22  2  0
 22 23  1  0
 23 24  1  0
 23 25  2  0
 25 26  1  0
 26 27  2  0
 27  2  1  0
 20 10  1  0
 27 21  1  0
 19 14  1  0
M  END
>  <energy_score>  (123) 
-18.414278

>  <fragmenstein_runtime>  (123) 
6.014613

>  <HIPPO Pose ID>  (123) 
503442

>  <fragmenstein_error>  (123) 


>  <alias>  (123) 
JWQLFZZVZJQGJI-UHFFFAOYSA-N-P126-P126-P183-601502

>  <orig_smiles>  (123) 
Cn1nc(C(=O)NCCc2coc(-c3ccccc3)n2)c2cc(Br)ccc21

>  <smiles>  (123) 
Cn1nc(C(=O)NCCc2coc(-c3ccccc3)n2)c2cc(Br)ccc21

>  <inchikey>  (123) 
JWQLFZZVZJQGJI-UHFFFAOYSA-N

>  <HIPPO Compound ID>  (123) 
289856

>  <fragmenstein_mode>  (123) 
expansion

>  <fragmenstein_outcome>  (123) 
acceptable

>  <distance_score>  (123) 
0.960052

>  <subsites>  (123) 
None

>  <scratch_subdir>  (123) 
/opt/xchem-fragalysis-2/maxwin/BulkDock/SCRATCH/601502/JWQLFZZVZJQGJI-UHFFFAOYSA-N-P126-P126-P183-601502

>  <inspiration_score>  (123) 
None

>  <name>  (123) 
JWQLFZZVZJQGJI-UHFFFAOYSA-N-P126-P126-P183-601502

>  <ref_mols>  (123) 
A2290a,A3436a

>  <ref_pdb>  (123) 
A0514a

>  <exports>  (123) 
['/opt/xchem-fragalysis-2/maxwin/openbind-hippo/a71ev2a/cycle_01/syndirella/elabs/openbind_a71ev2a_c1_elab_chemspace_filtered.sdf', '/opt/xchem-fragalysis-2/maxwin/BulkDock/OUTPUTS/a71ev2a_c1_elab_bulkdock_input_1GFT2LV.sdf', '/opt/xchem-fragalysis-2/maxwin/openbind-hippo/a71ev2a/cycle_01/syndirella/elabs/ASAP-0031281-001_elabs.sdf']

>  <Energy>  (123) 
107.460648

>  <tags>  (123) 
fragmenstein_placed,a71ev2a_c1_elab_bulkdock_input,BulkDock Fragalysis export,openbind_a71ev2a_c1_elabs_filtered

>  <GNINA pK>  (123) 
nan

$$$$
JWQLFZZVZJQGJI-UHFFFAOYSA-N-P183-P126-P183-601502
     RDKit          3D

 27 30  0  0  0  0  0  0  0  0999 V2000
    9.3021    8.9308   23.4557 C   0  0  0  0  0  0  0  0  0  0  0  0
    9.0045   10.2544   23.9542 N   0  0  0  0  0  0  0  0  0  0  0  0
    9.7690   11.2726   23.5265 N   0  0  0  0  0  0  0  0  0  0  0  0
    9.3475   12.3293   24.2466 C   0  0  0  0  0  0  0  0  0  0  0  0
   10.0953   13.5909   24.2368 C   0  0  0  0  0  0  0  0  0  0  0  0
    9.9948   14.3776   25.0868 O   0  0  0  0  0  0  0  0  0  0  0  0
   10.9749   13.5865   22.9939 N   0  0  0  0  0  0  0  0  0  0  0  0
   11.9895   14.4987   22.5706 C   0  0  0  0  0  0  0  0  0  0  0  0
   12.3736   14.2653   21.1228 C   0  0  0  0  0  0  0  0  0  0  0  0
   11.3495   14.5889   20.1381 C   0  0  0  0  0  0  0  0  0  0  0  0
   11.4623   14.7981   18.7883 C   0  0  0  0  0  0  0  0  0  0  0  0
   10.3581   15.4781   18.4013 O   0  0  0  0  0  0  0  0  0  0  0  0
    9.6546   15.5732   19.5462 C   0  0  0  0  0  0  0  0  0  0  0  0
    9.0261   16.8248   19.7466 C   0  0  0  0  0  0  0  0  0  0  0  0
    8.3246   17.5429   18.8055 C   0  0  0  0  0  0  0  0  0  0  0  0
    7.7951   18.7796   19.0424 C   0  0  0  0  0  0  0  0  0  0  0  0
    8.0996   19.3265   20.2375 C   0  0  0  0  0  0  0  0  0  0  0  0
    8.8473   18.6352   21.1571 C   0  0  0  0  0  0  0  0  0  0  0  0
    9.2619   17.3696   20.9538 C   0  0  0  0  0  0  0  0  0  0  0  0
   10.0789   14.8216   20.5295 N   0  0  0  0  0  0  0  0  0  0  0  0
    8.2118   12.0126   25.0225 C   0  0  0  0  0  0  0  0  0  0  0  0
    7.3521   12.7324   25.8735 C   0  0  0  0  0  0  0  0  0  0  0  0
    6.3793   12.0339   26.5864 C   0  0  0  0  0  0  0  0  0  0  0  0
    5.2286   12.9694   27.7590 Br  0  0  0  0  0  0  0  0  0  0  0  0
    6.2544   10.6552   26.4641 C   0  0  0  0  0  0  0  0  0  0  0  0
    7.0920    9.9379   25.6057 C   0  0  0  0  0  0  0  0  0  0  0  0
    8.0604   10.6374   24.8801 C   0  0  0  0  0  0  0  0  0  0  0  0
  1  2  1  0
  2  3  1  0
  3  4  2  0
  4  5  1  0
  5  6  2  0
  5  7  1  0
  7  8  1  0
  8  9  1  0
  9 10  1  0
 10 11  2  0
 11 12  1  0
 12 13  1  0
 13 14  1  0
 14 15  2  0
 15 16  1  0
 16 17  2  0
 17 18  1  0
 18 19  2  0
 13 20  2  0
  4 21  1  0
 21 22  2  0
 22 23  1  0
 23 24  1  0
 23 25  2  0
 25 26  1  0
 26 27  2  0
 27  2  1  0
 20 10  1  0
 27 21  1  0
 19 14  1  0
M  END
>  <energy_score>  (124) 
4.530619

>  <fragmenstein_runtime>  (124) 
8.926295

>  <HIPPO Pose ID>  (124) 
503443

>  <fragmenstein_error>  (124) 


>  <alias>  (124) 
JWQLFZZVZJQGJI-UHFFFAOYSA-N-P183-P126-P183-601502

>  <orig_smiles>  (124) 
Cn1nc(C(=O)NCCc2coc(-c3ccccc3)n2)c2cc(Br)ccc21

>  <smiles>  (124) 
Cn1nc(C(=O)NCCc2coc(-c3ccccc3)n2)c2cc(Br)ccc21

>  <inchikey>  (124) 
JWQLFZZVZJQGJI-UHFFFAOYSA-N

>  <HIPPO Compound ID>  (124) 
289856

>  <fragmenstein_mode>  (124) 
expansion

>  <fragmenstein_outcome>  (124) 
too contorted

>  <distance_score>  (124) 
0.885968

>  <subsites>  (124) 
None

>  <scratch_subdir>  (124) 
/opt/xchem-fragalysis-2/maxwin/BulkDock/SCRATCH/601502/JWQLFZZVZJQGJI-UHFFFAOYSA-N-P183-P126-P183-601502

>  <inspiration_score>  (124) 
None

>  <name>  (124) 
JWQLFZZVZJQGJI-UHFFFAOYSA-N-P183-P126-P183-601502

>  <ref_mols>  (124) 
A2290a,A3436a

>  <ref_pdb>  (124) 
A0514a

>  <exports>  (124) 
['/opt/xchem-fragalysis-2/maxwin/openbind-hippo/a71ev2a/cycle_01/bulkdock/openbind_a71ev2a_c1_elab_chemspace.sdf', '/opt/xchem-fragalysis-2/maxwin/openbind-hippo/a71ev2a/cycle_01/syndirella/elabs/ASAP-0031281-001_elabs.sdf']

>  <Energy>  (124) 
130.405544

>  <tags>  (124) 
fragmenstein_placed,a71ev2a_c1_elab_bulkdock_input

>  <GNINA pK>  (124) 
nan

$$$$
ZOQYTVKTUIVPTA-UHFFFAOYSA-N-P126-P126-P183-601502
     RDKit          3D

 27 30  0  0  0  0  0  0  0  0999 V2000
   12.8180   13.2923   24.0224 C   0  0  0  0  0  0  0  0  0  0  0  0
   11.7135   14.1353   23.3964 C   0  0  1  0  0  0  0  0  0  0  0  0
   11.7606   13.9478   21.8662 C   0  0  0  0  0  0  0  0  0  0  0  0
   10.8064   14.7370   21.0523 C   0  0  0  0  0  0  0  0  0  0  0  0
   10.7719   14.9263   19.6882 C   0  0  0  0  0  0  0  0  0  0  0  0
    9.8195   15.8616   19.4122 O   0  0  0  0  0  0  0  0  0  0  0  0
    9.3195   16.1770   20.6321 C   0  0  0  0  0  0  0  0  0  0  0  0
    9.8001   15.4589   21.6206 N   0  0  0  0  0  0  0  0  0  0  0  0
   10.5313   13.6990   24.0956 N   0  0  0  0  0  0  0  0  0  0  0  0
    9.9539   14.1352   25.4656 C   0  0  0  0  0  0  0  0  0  0  0  0
   10.3046   14.9714   26.2046 O   0  0  0  0  0  0  0  0  0  0  0  0
    8.8687   13.2110   25.7850 C   0  0  0  0  0  0  0  0  0  0  0  0
    9.1072   11.9033   25.6178 N   0  0  0  0  0  0  0  0  0  0  0  0
    7.9089   11.3322   25.7905 N   0  0  0  0  0  0  0  0  0  0  0  0
    7.6272   10.0172   25.2735 C   0  0  0  0  0  0  0  0  0  0  0  0
    8.5309    9.7267   24.1493 C   0  0  0  0  0  0  0  0  0  0  0  0
    8.9820    8.4473   24.0409 C   0  0  0  0  0  0  0  0  0  0  0  0
    9.8888    8.0834   23.0914 C   0  0  0  0  0  0  0  0  0  0  0  0
   10.3680    9.0517   22.2599 C   0  0  0  0  0  0  0  0  0  0  0  0
   10.0316   10.3716   22.4428 C   0  0  0  0  0  0  0  0  0  0  0  0
    9.0019   10.6847   23.2753 C   0  0  0  0  0  0  0  0  0  0  0  0
    6.9906   12.1449   26.3533 C   0  0  0  0  0  0  0  0  0  0  0  0
    5.7085   11.8750   26.8182 C   0  0  0  0  0  0  0  0  0  0  0  0
    4.9837   12.9720   27.2538 C   0  0  0  0  0  0  0  0  0  0  0  0
    5.5238   14.2588   27.2021 C   0  0  0  0  0  0  0  0  0  0  0  0
    6.8173   14.5015   26.7270 C   0  0  0  0  0  0  0  0  0  0  0  0
    7.5738   13.4085   26.3095 C   0  0  0  0  0  0  0  0  0  0  0  0
  2  1  1  1
  2  3  1  0
  3  4  1  0
  4  5  2  0
  5  6  1  0
  6  7  1  0
  7  8  2  0
  2  9  1  0
  9 10  1  0
 10 11  2  0
 10 12  1  0
 12 13  2  0
 13 14  1  0
 14 15  1  0
 15 16  1  0
 16 17  2  0
 17 18  1  0
 18 19  2  0
 19 20  1  0
 20 21  2  0
 14 22  1  0
 22 23  2  0
 23 24  1  0
 24 25  2  0
 25 26  1  0
 26 27  2  0
  8  4  1  0
 27 12  1  0
 21 16  1  0
 27 22  1  0
M  END
>  <energy_score>  (125) 
22.5636

>  <fragmenstein_runtime>  (125) 
15.198961

>  <HIPPO Pose ID>  (125) 
503444

>  <fragmenstein_error>  (125) 


>  <alias>  (125) 
ZOQYTVKTUIVPTA-UHFFFAOYSA-N-P126-P126-P183-601502

>  <orig_smiles>  (125) 
CC(Cc1cocn1)NC(=O)c1nn(Cc2ccccc2)c2ccccc12

>  <smiles>  (125) 
CC(Cc1cocn1)NC(=O)c1nn(Cc2ccccc2)c2ccccc12

>  <inchikey>  (125) 
ZOQYTVKTUIVPTA-UHFFFAOYSA-N

>  <HIPPO Compound ID>  (125) 
289857

>  <fragmenstein_mode>  (125) 
expansion

>  <fragmenstein_outcome>  (125) 
too moved

>  <distance_score>  (125) 
2.199442

>  <subsites>  (125) 
None

>  <scratch_subdir>  (125) 
/opt/xchem-fragalysis-2/maxwin/BulkDock/SCRATCH/601502/ZOQYTVKTUIVPTA-UHFFFAOYSA-N-P126-P126-P183-601502

>  <inspiration_score>  (125) 
None

>  <name>  (125) 
ZOQYTVKTUIVPTA-UHFFFAOYSA-N-P126-P126-P183-601502

>  <ref_mols>  (125) 
A2290a,A3436a

>  <ref_pdb>  (125) 
A0514a

>  <exports>  (125) 
['/opt/xchem-fragalysis-2/maxwin/openbind-hippo/a71ev2a/cycle_01/bulkdock/openbind_a71ev2a_c1_elab_chemspace.sdf', '/opt/xchem-fragalysis-2/maxwin/openbind-hippo/a71ev2a/cycle_01/syndirella/elabs/ASAP-0031281-001_elabs.sdf']

>  <Energy>  (125) 
151.334028

>  <tags>  (125) 
fragmenstein_placed,a71ev2a_c1_elab_bulkdock_input

>  <GNINA pK>  (125) 
nan

$$$$
ZOQYTVKTUIVPTA-UHFFFAOYSA-N-P183-P126-P183-601502
     RDKit          3D

 27 30  0  0  0  0  0  0  0  0999 V2000
   12.2862   13.9336   23.8255 C   0  0  0  0  0  0  0  0  0  0  0  0
   11.1758   14.6624   23.0634 C   0  0  1  0  0  0  0  0  0  0  0  0
   11.4273   14.4838   21.5612 C   0  0  0  0  0  0  0  0  0  0  0  0
   10.6243   15.3390   20.6669 C   0  0  0  0  0  0  0  0  0  0  0  0
   10.4337   15.2439   19.3098 C   0  0  0  0  0  0  0  0  0  0  0  0
    9.5794   16.2340   18.9333 O   0  0  0  0  0  0  0  0  0  0  0  0
    9.3273   16.9073   20.0884 C   0  0  0  0  0  0  0  0  0  0  0  0
    9.9761   16.4509   21.1310 N   0  0  0  0  0  0  0  0  0  0  0  0
    9.9414   14.1379   23.6273 N   0  0  0  0  0  0  0  0  0  0  0  0
    8.4756   14.2849   23.1504 C   0  0  0  0  0  0  0  0  0  0  0  0
    8.0396   14.7837   22.1912 O   0  0  0  0  0  0  0  0  0  0  0  0
    7.6557   13.5555   24.1204 C   0  0  0  0  0  0  0  0  0  0  0  0
    7.4752   12.2586   23.8606 N   0  0  0  0  0  0  0  0  0  0  0  0
    7.1928   11.7095   25.0523 N   0  0  0  0  0  0  0  0  0  0  0  0
    7.5559   10.3407   25.3765 C   0  0  0  0  0  0  0  0  0  0  0  0
    8.6469    9.8721   24.5026 C   0  0  0  0  0  0  0  0  0  0  0  0
    9.5720   10.7391   23.9754 C   0  0  0  0  0  0  0  0  0  0  0  0
   10.0202   10.4907   22.7288 C   0  0  0  0  0  0  0  0  0  0  0  0
    9.8800    9.2240   22.2073 C   0  0  0  0  0  0  0  0  0  0  0  0
    9.2164    8.2376   22.8893 C   0  0  0  0  0  0  0  0  0  0  0  0
    8.5806    8.5893   24.0419 C   0  0  0  0  0  0  0  0  0  0  0  0
    6.8796   12.6179   26.0038 C   0  0  0  0  0  0  0  0  0  0  0  0
    6.3975   12.4279   27.2949 C   0  0  0  0  0  0  0  0  0  0  0  0
    6.3680   13.5540   28.0966 C   0  0  0  0  0  0  0  0  0  0  0  0
    6.8031   14.7885   27.6107 C   0  0  0  0  0  0  0  0  0  0  0  0
    7.2625   14.9515   26.2961 C   0  0  0  0  0  0  0  0  0  0  0  0
    7.2755   13.8366   25.4586 C   0  0  0  0  0  0  0  0  0  0  0  0
  2  1  1  1
  2  3  1  0
  3  4  1  0
  4  5  2  0
  5  6  1  0
  6  7  1  0
  7  8  2  0
  2  9  1  0
  9 10  1  0
 10 11  2  0
 10 12  1  0
 12 13  2  0
 13 14  1  0
 14 15  1  0
 15 16  1  0
 16 17  2  0
 17 18  1  0
 18 19  2  0
 19 20  1  0
 20 21  2  0
 14 22  1  0
 22 23  2  0
 23 24  1  0
 24 25  2  0
 25 26  1  0
 26 27  2  0
  8  4  1  0
 27 12  1  0
 21 16  1  0
 27 22  1  0
M  END
>  <energy_score>  (126) 
49.698663

>  <fragmenstein_runtime>  (126) 
12.063933

>  <HIPPO Pose ID>  (126) 
503445

>  <fragmenstein_error>  (126) 


>  <alias>  (126) 
ZOQYTVKTUIVPTA-UHFFFAOYSA-N-P183-P126-P183-601502

>  <orig_smiles>  (126) 
CC(Cc1cocn1)NC(=O)c1nn(Cc2ccccc2)c2ccccc12

>  <smiles>  (126) 
CC(Cc1cocn1)NC(=O)c1nn(Cc2ccccc2)c2ccccc12

>  <inchikey>  (126) 
ZOQYTVKTUIVPTA-UHFFFAOYSA-N

>  <HIPPO Compound ID>  (126) 
289857

>  <fragmenstein_mode>  (126) 
expansion

>  <fragmenstein_outcome>  (126) 
too moved

>  <distance_score>  (126) 
2.373401

>  <subsites>  (126) 
None

>  <scratch_subdir>  (126) 
/opt/xchem-fragalysis-2/maxwin/BulkDock/SCRATCH/601502/ZOQYTVKTUIVPTA-UHFFFAOYSA-N-P183-P126-P183-601502

>  <inspiration_score>  (126) 
None

>  <name>  (126) 
ZOQYTVKTUIVPTA-UHFFFAOYSA-N-P183-P126-P183-601502

>  <ref_mols>  (126) 
A2290a,A3436a

>  <ref_pdb>  (126) 
A0514a

>  <exports>  (126) 
['/opt/xchem-fragalysis-2/maxwin/openbind-hippo/a71ev2a/cycle_01/syndirella/elabs/ASAP-0031281-001_elabs.sdf']

>  <Energy>  (126) 
178.469091

>  <tags>  (126) 
fragmenstein_placed,a71ev2a_c1_elab_bulkdock_input

>  <GNINA pK>  (126) 
nan

$$$$
IMVBRVKIBFNTFN-UHFFFAOYSA-N-P126-P126-P183-601502
     RDKit          3D

 27 30  0  0  0  0  0  0  0  0999 V2000
   12.7999   13.3391   23.8592 C   0  0  0  0  0  0  0  0  0  0  0  0
   11.7263   14.1619   23.1615 C   0  0  1  0  0  0  0  0  0  0  0  0
   11.9377   14.1358   21.6414 C   0  0  0  0  0  0  0  0  0  0  0  0
   10.9141   14.8620   20.8520 C   0  0  0  0  0  0  0  0  0  0  0  0
   10.7654   14.9644   19.4887 C   0  0  0  0  0  0  0  0  0  0  0  0
    9.7909   15.8847   19.2343 O   0  0  0  0  0  0  0  0  0  0  0  0
    9.4015   16.2933   20.4676 C   0  0  0  0  0  0  0  0  0  0  0  0
    9.9841   15.6603   21.4560 N   0  0  0  0  0  0  0  0  0  0  0  0
   10.4971   13.5919   23.6295 N   0  0  0  0  0  0  0  0  0  0  0  0
    9.7226   13.8223   24.9395 C   0  0  0  0  0  0  0  0  0  0  0  0
    9.9199   14.5697   25.8136 O   0  0  0  0  0  0  0  0  0  0  0  0
    8.6658   12.8125   24.9779 C   0  0  0  0  0  0  0  0  0  0  0  0
    8.6746   11.8509   24.0431 N   0  0  0  0  0  0  0  0  0  0  0  0
    8.0372   10.8461   24.6380 N   0  0  0  0  0  0  0  0  0  0  0  0
    8.4164    9.4984   24.3067 C   0  0  0  0  0  0  0  0  0  0  0  0
    9.2647    9.4779   23.0614 C   0  0  2  0  0  0  0  0  0  0  0  0
    9.1459    8.1601   22.3805 C   0  0  0  0  0  0  0  0  0  0  0  0
   10.0049    7.4213   23.1810 N   0  0  0  0  0  0  0  0  0  0  0  0
   10.9891    8.2448   23.5735 C   0  0  0  0  0  0  0  0  0  0  0  0
   12.0312    7.8610   24.0282 O   0  0  0  0  0  0  0  0  0  0  0  0
   10.6276    9.5376   23.4448 O   0  0  0  0  0  0  0  0  0  0  0  0
    7.3134   11.2103   25.7282 C   0  0  0  0  0  0  0  0  0  0  0  0
    6.4402   10.4934   26.5446 C   0  0  0  0  0  0  0  0  0  0  0  0
    5.9374   11.1701   27.6516 C   0  0  0  0  0  0  0  0  0  0  0  0
    6.3221   12.4820   27.9348 C   0  0  0  0  0  0  0  0  0  0  0  0
    7.2259   13.1683   27.1191 C   0  0  0  0  0  0  0  0  0  0  0  0
    7.7111   12.5218   25.9788 C   0  0  0  0  0  0  0  0  0  0  0  0
  2  1  1  1
  2  3  1  0
  3  4  1  0
  4  5  2  0
  5  6  1  0
  6  7  1  0
  7  8  2  0
  2  9  1  0
  9 10  1  0
 10 11  2  0
 10 12  1  0
 12 13  2  0
 13 14  1  0
 14 15  1  0
 16 15  1  1
 16 17  1  0
 17 18  1  0
 18 19  1  0
 19 20  2  0
 19 21  1  0
 14 22  1  0
 22 23  2  0
 23 24  1  0
 24 25  2  0
 25 26  1  0
 26 27  2  0
  8  4  1  0
 27 12  1  0
 21 16  1  0
 27 22  1  0
M  END
>  <energy_score>  (127) 
-24.284124

>  <fragmenstein_runtime>  (127) 
7.455944

>  <HIPPO Pose ID>  (127) 
503446

>  <fragmenstein_error>  (127) 


>  <alias>  (127) 
IMVBRVKIBFNTFN-UHFFFAOYSA-N-P126-P126-P183-601502

>  <orig_smiles>  (127) 
CC(Cc1cocn1)NC(=O)c1nn(CC2CNC(=O)O2)c2ccccc12

>  <smiles>  (127) 
CC(Cc1cocn1)NC(=O)c1nn(CC2CNC(=O)O2)c2ccccc12

>  <inchikey>  (127) 
IMVBRVKIBFNTFN-UHFFFAOYSA-N

>  <HIPPO Compound ID>  (127) 
289858

>  <fragmenstein_mode>  (127) 
expansion

>  <fragmenstein_outcome>  (127) 
too moved

>  <distance_score>  (127) 
1.449777

>  <subsites>  (127) 
None

>  <scratch_subdir>  (127) 
/opt/xchem-fragalysis-2/maxwin/BulkDock/SCRATCH/601502/IMVBRVKIBFNTFN-UHFFFAOYSA-N-P126-P126-P183-601502

>  <inspiration_score>  (127) 
None

>  <name>  (127) 
IMVBRVKIBFNTFN-UHFFFAOYSA-N-P126-P126-P183-601502

>  <ref_mols>  (127) 
A2290a,A3436a

>  <ref_pdb>  (127) 
A0514a

>  <exports>  (127) 
['/opt/xchem-fragalysis-2/maxwin/openbind-hippo/a71ev2a/cycle_01/bulkdock/openbind_a71ev2a_c1_elab_chemspace.sdf', '/opt/xchem-fragalysis-2/maxwin/openbind-hippo/a71ev2a/cycle_01/syndirella/elabs/openbind_a71ev2a_c1_elab_chemspace_filtered.sdf', '/opt/xchem-fragalysis-2/maxwin/openbind-hippo/a71ev2a/cycle_01/syndirella/elabs/ASAP-0031281-001_elabs.sdf']

>  <Energy>  (127) 
53.535733

>  <tags>  (127) 
fragmenstein_placed,openbind_a71ev2a_c1_elabs_filtered,a71ev2a_c1_elab_bulkdock_input

>  <GNINA pK>  (127) 
nan

$$$$
IMVBRVKIBFNTFN-UHFFFAOYSA-N-P183-P126-P183-601502
     RDKit          3D

 27 30  0  0  0  0  0  0  0  0999 V2000
   12.3884   13.8322   24.0869 C   0  0  0  0  0  0  0  0  0  0  0  0
   11.2475   14.4334   23.2711 C   0  0  1  0  0  0  0  0  0  0  0  0
   11.5861   14.3722   21.7700 C   0  0  0  0  0  0  0  0  0  0  0  0
   10.6615   15.1235   20.8827 C   0  0  0  0  0  0  0  0  0  0  0  0
   10.6093   15.1647   19.5076 C   0  0  0  0  0  0  0  0  0  0  0  0
    9.6874   16.1018   19.1447 O   0  0  0  0  0  0  0  0  0  0  0  0
    9.2288   16.5847   20.3311 C   0  0  0  0  0  0  0  0  0  0  0  0
    9.7420   16.0047   21.3877 N   0  0  0  0  0  0  0  0  0  0  0  0
   10.0434   13.7381   23.6642 N   0  0  0  0  0  0  0  0  0  0  0  0
    9.0840   13.9875   24.8404 C   0  0  0  0  0  0  0  0  0  0  0  0
    9.0682   14.8407   25.6355 O   0  0  0  0  0  0  0  0  0  0  0  0
    8.1364   12.8594   24.9323 C   0  0  0  0  0  0  0  0  0  0  0  0
    8.2258   11.8018   24.1155 N   0  0  0  0  0  0  0  0  0  0  0  0
    7.6125   10.8152   24.7777 N   0  0  0  0  0  0  0  0  0  0  0  0
    8.0748    9.4474   24.6520 C   0  0  0  0  0  0  0  0  0  0  0  0
    8.5939    8.9430   23.3139 C   0  0  2  0  0  0  0  0  0  0  0  0
    9.7318    8.0229   23.4915 C   0  0  0  0  0  0  0  0  0  0  0  0
   10.7706    8.9243   23.7294 N   0  0  0  0  0  0  0  0  0  0  0  0
   10.3266   10.1549   23.3257 C   0  0  0  0  0  0  0  0  0  0  0  0
   10.8282   11.2175   23.6285 O   0  0  0  0  0  0  0  0  0  0  0  0
    9.2176    9.9844   22.5997 O   0  0  0  0  0  0  0  0  0  0  0  0
    6.8693   11.2542   25.8350 C   0  0  0  0  0  0  0  0  0  0  0  0
    6.0235   10.5836   26.7182 C   0  0  0  0  0  0  0  0  0  0  0  0
    5.4893   11.3353   27.7594 C   0  0  0  0  0  0  0  0  0  0  0  0
    5.8031   12.6852   27.9112 C   0  0  0  0  0  0  0  0  0  0  0  0
    6.6585   13.3345   27.0203 C   0  0  0  0  0  0  0  0  0  0  0  0
    7.1868   12.6041   25.9504 C   0  0  0  0  0  0  0  0  0  0  0  0
  2  1  1  1
  2  3  1  0
  3  4  1  0
  4  5  2  0
  5  6  1  0
  6  7  1  0
  7  8  2  0
  2  9  1  0
  9 10  1  0
 10 11  2  0
 10 12  1  0
 12 13  2  0
 13 14  1  0
 14 15  1  0
 16 15  1  1
 16 17  1  0
 17 18  1  0
 18 19  1  0
 19 20  2  0
 19 21  1  0
 14 22  1  0
 22 23  2  0
 23 24  1  0
 24 25  2  0
 25 26  1  0
 26 27  2  0
  8  4  1  0
 27 12  1  0
 21 16  1  0
 27 22  1  0
M  END
>  <energy_score>  (128) 
-3.020396

>  <fragmenstein_runtime>  (128) 
12.119783

>  <HIPPO Pose ID>  (128) 
503447

>  <fragmenstein_error>  (128) 


>  <alias>  (128) 
IMVBRVKIBFNTFN-UHFFFAOYSA-N-P183-P126-P183-601502

>  <orig_smiles>  (128) 
CC(Cc1cocn1)NC(=O)c1nn(CC2CNC(=O)O2)c2ccccc12

>  <smiles>  (128) 
CC(Cc1cocn1)NC(=O)c1nn(CC2CNC(=O)O2)c2ccccc12

>  <inchikey>  (128) 
IMVBRVKIBFNTFN-UHFFFAOYSA-N

>  <HIPPO Compound ID>  (128) 
289858

>  <fragmenstein_mode>  (128) 
expansion

>  <fragmenstein_outcome>  (128) 
too moved

>  <distance_score>  (128) 
1.7281

>  <subsites>  (128) 
None

>  <scratch_subdir>  (128) 
/opt/xchem-fragalysis-2/maxwin/BulkDock/SCRATCH/601502/IMVBRVKIBFNTFN-UHFFFAOYSA-N-P183-P126-P183-601502

>  <inspiration_score>  (128) 
None

>  <name>  (128) 
IMVBRVKIBFNTFN-UHFFFAOYSA-N-P183-P126-P183-601502

>  <ref_mols>  (128) 
A2290a,A3436a

>  <ref_pdb>  (128) 
A0514a

>  <exports>  (128) 
['/opt/xchem-fragalysis-2/maxwin/openbind-hippo/a71ev2a/cycle_01/syndirella/elabs/openbind_a71ev2a_c1_elab_chemspace_filtered.sdf', '/opt/xchem-fragalysis-2/maxwin/openbind-hippo/a71ev2a/cycle_01/syndirella/elabs/ASAP-0031281-001_elabs.sdf']

>  <Energy>  (128) 
74.799461

>  <tags>  (128) 
fragmenstein_placed,openbind_a71ev2a_c1_elabs_filtered,a71ev2a_c1_elab_bulkdock_input

>  <GNINA pK>  (128) 
nan

$$$$
QCSMZHOMFLZWDZ-UHFFFAOYSA-N-P126-P126-P183-601502
     RDKit          3D

 28 31  0  0  0  0  0  0  0  0999 V2000
    8.5897   17.4654   20.5967 C   0  0  0  0  0  0  0  0  0  0  0  0
    9.4838   16.3020   20.5379 C   0  0  0  0  0  0  0  0  0  0  0  0
    9.9358   15.5849   21.5414 N   0  0  0  0  0  0  0  0  0  0  0  0
   10.9056   14.8093   20.9927 C   0  0  0  0  0  0  0  0  0  0  0  0
   11.8728   14.0660   21.8246 C   0  0  0  0  0  0  0  0  0  0  0  0
   11.7118   14.3091   23.3173 C   0  0  0  0  0  0  0  0  0  0  0  0
   10.4757   13.8581   23.9055 N   0  0  0  0  0  0  0  0  0  0  0  0
    9.8597   14.1482   25.2903 C   0  0  0  0  0  0  0  0  0  0  0  0
   10.2916   14.7360   26.2032 O   0  0  0  0  0  0  0  0  0  0  0  0
    8.5622   13.4408   25.3793 C   0  0  0  0  0  0  0  0  0  0  0  0
    8.1966   12.5564   24.4307 N   0  0  0  0  0  0  0  0  0  0  0  0
    7.4979   11.6513   25.1508 N   0  0  0  0  0  0  0  0  0  0  0  0
    7.8786   10.2463   25.2530 C   0  0  0  0  0  0  0  0  0  0  0  0
    8.8934    9.8368   24.2813 C   0  0  0  0  0  0  0  0  0  0  0  0
    9.9112   10.6309   23.8298 C   0  0  0  0  0  0  0  0  0  0  0  0
   10.4211   10.3656   22.6068 C   0  0  0  0  0  0  0  0  0  0  0  0
   10.2207    9.1234   22.0431 C   0  0  0  0  0  0  0  0  0  0  0  0
    9.4149    8.1950   22.6430 C   0  0  0  0  0  0  0  0  0  0  0  0
    8.7337    8.5896   23.7534 C   0  0  0  0  0  0  0  0  0  0  0  0
    6.8999   12.2156   26.2402 C   0  0  0  0  0  0  0  0  0  0  0  0
    5.9516   11.6890   27.1131 C   0  0  0  0  0  0  0  0  0  0  0  0
    5.7660   12.3903   28.2929 C   0  0  0  0  0  0  0  0  0  0  0  0
    6.5158   13.5349   28.5730 C   0  0  0  0  0  0  0  0  0  0  0  0
    7.4788   14.0260   27.6827 C   0  0  0  0  0  0  0  0  0  0  0  0
    7.6606   13.3554   26.4729 C   0  0  0  0  0  0  0  0  0  0  0  0
   10.8795   14.9662   19.6317 C   0  0  0  0  0  0  0  0  0  0  0  0
   11.7214   14.4552   18.5591 C   0  0  0  0  0  0  0  0  0  0  0  0
    9.9463   15.9118   19.3192 O   0  0  0  0  0  0  0  0  0  0  0  0
  1  2  1  0
  2  3  2  0
  3  4  1  0
  4  5  1  0
  5  6  1  0
  6  7  1  0
  7  8  1  0
  8  9  2  0
  8 10  1  0
 10 11  2  0
 11 12  1  0
 12 13  1  0
 13 14  1  0
 14 15  2  0
 15 16  1  0
 16 17  2  0
 17 18  1  0
 18 19  2  0
 12 20  1  0
 20 21  2  0
 21 22  1  0
 22 23  2  0
 23 24  1  0
 24 25  2  0
  4 26  2  0
 26 27  1  0
 26 28  1  0
 28  2  1  0
 25 10  1  0
 19 14  1  0
 25 20  1  0
M  END
>  <energy_score>  (129) 
8.374204

>  <fragmenstein_runtime>  (129) 
12.102314

>  <HIPPO Pose ID>  (129) 
503448

>  <fragmenstein_error>  (129) 


>  <alias>  (129) 
QCSMZHOMFLZWDZ-UHFFFAOYSA-N-P126-P126-P183-601502

>  <orig_smiles>  (129) 
Cc1nc(CCNC(=O)c2nn(Cc3ccccc3)c3ccccc23)c(C)o1

>  <smiles>  (129) 
Cc1nc(CCNC(=O)c2nn(Cc3ccccc3)c3ccccc23)c(C)o1

>  <inchikey>  (129) 
QCSMZHOMFLZWDZ-UHFFFAOYSA-N

>  <HIPPO Compound ID>  (129) 
289859

>  <fragmenstein_mode>  (129) 
expansion

>  <fragmenstein_outcome>  (129) 
too moved

>  <distance_score>  (129) 
2.146266

>  <subsites>  (129) 
None

>  <scratch_subdir>  (129) 
/opt/xchem-fragalysis-2/maxwin/BulkDock/SCRATCH/601502/QCSMZHOMFLZWDZ-UHFFFAOYSA-N-P126-P126-P183-601502

>  <inspiration_score>  (129) 
None

>  <name>  (129) 
QCSMZHOMFLZWDZ-UHFFFAOYSA-N-P126-P126-P183-601502

>  <ref_mols>  (129) 
A2290a,A3436a

>  <ref_pdb>  (129) 
A0514a

>  <exports>  (129) 
['/opt/xchem-fragalysis-2/maxwin/openbind-hippo/a71ev2a/cycle_01/bulkdock/openbind_a71ev2a_c1_elab_chemspace.sdf', '/opt/xchem-fragalysis-2/maxwin/openbind-hippo/a71ev2a/cycle_01/syndirella/elabs/ASAP-0031281-001_elabs.sdf']

>  <Energy>  (129) 
160.897956

>  <tags>  (129) 
fragmenstein_placed,a71ev2a_c1_elab_bulkdock_input

>  <GNINA pK>  (129) 
nan

$$$$
QCSMZHOMFLZWDZ-UHFFFAOYSA-N-P183-P126-P183-601502
     RDKit          3D

 28 31  0  0  0  0  0  0  0  0999 V2000
    8.5092   18.0018   20.2039 C   0  0  0  0  0  0  0  0  0  0  0  0
    9.3078   16.7724   20.3183 C   0  0  0  0  0  0  0  0  0  0  0  0
    9.7208   16.1215   21.3865 N   0  0  0  0  0  0  0  0  0  0  0  0
   10.6358   15.2242   20.9069 C   0  0  0  0  0  0  0  0  0  0  0  0
   11.5299   14.4255   21.7799 C   0  0  0  0  0  0  0  0  0  0  0  0
   11.3449   14.6157   23.2775 C   0  0  0  0  0  0  0  0  0  0  0  0
   10.1003   14.1376   23.8295 N   0  0  0  0  0  0  0  0  0  0  0  0
    9.4809   14.3403   25.2260 C   0  0  0  0  0  0  0  0  0  0  0  0
    9.9133   14.8615   26.1774 O   0  0  0  0  0  0  0  0  0  0  0  0
    8.1727   13.6467   25.2893 C   0  0  0  0  0  0  0  0  0  0  0  0
    7.8368   12.7060   24.3846 N   0  0  0  0  0  0  0  0  0  0  0  0
    7.1927   11.8028   25.1648 N   0  0  0  0  0  0  0  0  0  0  0  0
    7.6198   10.4158   25.3397 C   0  0  0  0  0  0  0  0  0  0  0  0
    8.6441    9.9658   24.4012 C   0  0  0  0  0  0  0  0  0  0  0  0
    9.5688   10.8083   23.8523 C   0  0  0  0  0  0  0  0  0  0  0  0
   10.0195   10.5123   22.6241 C   0  0  0  0  0  0  0  0  0  0  0  0
    9.8815    9.2287   22.1477 C   0  0  0  0  0  0  0  0  0  0  0  0
    9.2279    8.2624   22.8639 C   0  0  0  0  0  0  0  0  0  0  0  0
    8.5908    8.6564   23.9989 C   0  0  0  0  0  0  0  0  0  0  0  0
    6.5768   12.3941   26.2311 C   0  0  0  0  0  0  0  0  0  0  0  0
    5.6849   11.8564   27.1556 C   0  0  0  0  0  0  0  0  0  0  0  0
    5.4956   12.5958   28.3106 C   0  0  0  0  0  0  0  0  0  0  0  0
    6.1839   13.7929   28.5158 C   0  0  0  0  0  0  0  0  0  0  0  0
    7.0848   14.2998   27.5720 C   0  0  0  0  0  0  0  0  0  0  0  0
    7.2714   13.5861   26.3871 C   0  0  0  0  0  0  0  0  0  0  0  0
   10.6490   15.3037   19.5354 C   0  0  0  0  0  0  0  0  0  0  0  0
   11.4500   14.6869   18.4878 C   0  0  0  0  0  0  0  0  0  0  0  0
    9.7748   16.2657   19.1438 O   0  0  0  0  0  0  0  0  0  0  0  0
  1  2  1  0
  2  3  2  0
  3  4  1  0
  4  5  1  0
  5  6  1  0
  6  7  1  0
  7  8  1  0
  8  9  2  0
  8 10  1  0
 10 11  2  0
 11 12  1  0
 12 13  1  0
 13 14  1  0
 14 15  2  0
 15 16  1  0
 16 17  2  0
 17 18  1  0
 18 19  2  0
 12 20  1  0
 20 21  2  0
 21 22  1  0
 22 23  2  0
 23 24  1  0
 24 25  2  0
  4 26  2  0
 26 27  1  0
 26 28  1  0
 28  2  1  0
 25 10  1  0
 19 14  1  0
 25 20  1  0
M  END
>  <energy_score>  (130) 
11.38435

>  <fragmenstein_runtime>  (130) 
12.402799

>  <HIPPO Pose ID>  (130) 
503449

>  <fragmenstein_error>  (130) 


>  <alias>  (130) 
QCSMZHOMFLZWDZ-UHFFFAOYSA-N-P183-P126-P183-601502

>  <orig_smiles>  (130) 
Cc1nc(CCNC(=O)c2nn(Cc3ccccc3)c3ccccc23)c(C)o1

>  <smiles>  (130) 
Cc1nc(CCNC(=O)c2nn(Cc3ccccc3)c3ccccc23)c(C)o1

>  <inchikey>  (130) 
QCSMZHOMFLZWDZ-UHFFFAOYSA-N

>  <HIPPO Compound ID>  (130) 
289859

>  <fragmenstein_mode>  (130) 
expansion

>  <fragmenstein_outcome>  (130) 
too moved

>  <distance_score>  (130) 
2.320813

>  <subsites>  (130) 
None

>  <scratch_subdir>  (130) 
/opt/xchem-fragalysis-2/maxwin/BulkDock/SCRATCH/601502/QCSMZHOMFLZWDZ-UHFFFAOYSA-N-P183-P126-P183-601502

>  <inspiration_score>  (130) 
None

>  <name>  (130) 
QCSMZHOMFLZWDZ-UHFFFAOYSA-N-P183-P126-P183-601502

>  <ref_mols>  (130) 
A2290a,A3436a

>  <ref_pdb>  (130) 
A0514a

>  <exports>  (130) 
['/opt/xchem-fragalysis-2/maxwin/openbind-hippo/a71ev2a/cycle_01/syndirella/elabs/ASAP-0031281-001_elabs.sdf']

>  <Energy>  (130) 
163.908103

>  <tags>  (130) 
fragmenstein_placed,a71ev2a_c1_elab_bulkdock_input

>  <GNINA pK>  (130) 
nan

$$$$
ABNAGSZVCSZFJI-UHFFFAOYSA-N-P126-P126-P183-601502
     RDKit          3D

 28 30  0  0  0  0  0  0  0  0999 V2000
    9.2370    8.1021   22.8290 C   0  0  0  0  0  0  0  0  0  0  0  0
    9.3584    9.3333   23.5404 N   0  0  0  0  0  0  0  0  0  0  0  0
   10.3222   10.1207   23.0871 N   0  0  0  0  0  0  0  0  0  0  0  0
   10.2834   11.1610   23.8997 C   0  0  0  0  0  0  0  0  0  0  0  0
   11.1165   12.3000   23.6705 C   0  0  0  0  0  0  0  0  0  0  0  0
   11.9519   12.6687   24.4398 O   0  0  0  0  0  0  0  0  0  0  0  0
   10.6551   12.8665   22.4665 N   0  0  0  0  0  0  0  0  0  0  0  0
   10.9666   14.1029   21.8373 C   0  0  1  0  0  0  0  0  0  0  0  0
   10.2139   14.3931   20.5536 C   0  0  0  0  0  0  0  0  0  0  0  0
    9.7533   15.7669   20.2442 C   0  0  0  0  0  0  0  0  0  0  0  0
    9.8316   16.4682   19.0622 C   0  0  0  0  0  0  0  0  0  0  0  0
    9.1297   17.6254   19.1909 O   0  0  0  0  0  0  0  0  0  0  0  0
    8.6728   17.5776   20.4701 C   0  0  0  0  0  0  0  0  0  0  0  0
    8.9791   16.4755   21.1181 N   0  0  0  0  0  0  0  0  0  0  0  0
   10.3867   14.8045   23.0658 C   0  0  0  0  0  0  0  0  0  0  0  0
    9.3113   14.5837   23.6200 O   0  0  0  0  0  0  0  0  0  0  0  0
   11.3246   15.6743   23.5139 O   0  0  0  0  0  0  0  0  0  0  0  0
   11.8333   17.1589   24.5920 C   0  0  0  0  0  0  0  0  0  0  0  0
   12.4026   16.4961   23.1090 C   0  0  0  0  0  0  0  0  0  0  0  0
   11.4296   19.4089   24.2324 C   0  0  0  0  0  0  0  0  0  0  0  0
   11.8145   15.8354   25.8418 C   0  0  0  0  0  0  0  0  0  0  0  0
    9.1396   11.1525   24.7339 C   0  0  0  0  0  0  0  0  0  0  0  0
    8.5125   12.0682   25.6000 C   0  0  0  0  0  0  0  0  0  0  0  0
    7.3814   11.6588   26.2972 C   0  0  0  0  0  0  0  0  0  0  0  0
    6.8021   12.4998   27.1642 F   0  0  0  0  0  0  0  0  0  0  0  0
    6.8709   10.3814   26.1462 C   0  0  0  0  0  0  0  0  0  0  0  0
    7.4705    9.4845   25.2575 C   0  0  0  0  0  0  0  0  0  0  0  0
    8.5882    9.8959   24.5283 C   0  0  0  0  0  0  0  0  0  0  0  0
  1  2  1  0
  2  3  1  0
  3  4  2  0
  4  5  1  0
  5  6  2  0
  5  7  1  0
  7  8  1  0
  8  9  1  6
  9 10  1  0
 10 11  2  0
 11 12  1  0
 12 13  1  0
 13 14  2  0
  8 15  1  0
 15 16  2  0
 15 17  1  0
 17 18  1  0
 18 19  1  0
 18 20  1  0
 18 21  1  0
  4 22  1  0
 22 23  2  0
 23 24  1  0
 24 25  1  0
 24 26  2  0
 26 27  1  0
 27 28  2  0
 28  2  1  0
 14 10  1  0
 28 22  1  0
M  END
>  <energy_score>  (131) 
588.926519

>  <fragmenstein_runtime>  (131) 
8.694844

>  <HIPPO Pose ID>  (131) 
503450

>  <fragmenstein_error>  (131) 


>  <alias>  (131) 
ABNAGSZVCSZFJI-UHFFFAOYSA-N-P126-P126-P183-601502

>  <orig_smiles>  (131) 
Cn1nc(C(=O)NC(Cc2cocn2)C(=O)OC(C)(C)C)c2cc(F)ccc21

>  <smiles>  (131) 
Cn1nc(C(=O)NC(Cc2cocn2)C(=O)OC(C)(C)C)c2cc(F)ccc21

>  <inchikey>  (131) 
ABNAGSZVCSZFJI-UHFFFAOYSA-N

>  <HIPPO Compound ID>  (131) 
289860

>  <fragmenstein_mode>  (131) 
expansion

>  <fragmenstein_outcome>  (131) 
too moved

>  <distance_score>  (131) 
1.108062

>  <subsites>  (131) 
None

>  <scratch_subdir>  (131) 
/opt/xchem-fragalysis-2/maxwin/BulkDock/SCRATCH/601502/ABNAGSZVCSZFJI-UHFFFAOYSA-N-P126-P126-P183-601502

>  <inspiration_score>  (131) 
None

>  <name>  (131) 
ABNAGSZVCSZFJI-UHFFFAOYSA-N-P126-P126-P183-601502

>  <ref_mols>  (131) 
A2290a,A3436a

>  <ref_pdb>  (131) 
A0514a

>  <exports>  (131) 
['/opt/xchem-fragalysis-2/maxwin/openbind-hippo/a71ev2a/cycle_01/bulkdock/openbind_a71ev2a_c1_elab_chemspace.sdf', '/opt/xchem-fragalysis-2/maxwin/openbind-hippo/a71ev2a/cycle_01/syndirella/elabs/ASAP-0031281-001_elabs.sdf']

>  <Energy>  (131) 
720.26666

>  <tags>  (131) 
fragmenstein_placed,a71ev2a_c1_elab_bulkdock_input

>  <GNINA pK>  (131) 
nan

$$$$
ABNAGSZVCSZFJI-UHFFFAOYSA-N-P183-P126-P183-601502
     RDKit          3D

 28 30  0  0  0  0  0  0  0  0999 V2000
    8.7866    9.0686   24.0016 C   0  0  0  0  0  0  0  0  0  0  0  0
    8.2470   10.3065   24.5162 N   0  0  0  0  0  0  0  0  0  0  0  0
    8.8418   11.4307   24.1213 N   0  0  0  0  0  0  0  0  0  0  0  0
    8.1896   12.3948   24.7977 C   0  0  0  0  0  0  0  0  0  0  0  0
    8.8058   13.6900   24.9516 C   0  0  0  0  0  0  0  0  0  0  0  0
    8.2014   14.6952   25.1741 O   0  0  0  0  0  0  0  0  0  0  0  0
   10.1990   13.4427   24.8751 N   0  0  0  0  0  0  0  0  0  0  0  0
   11.2971   14.3194   24.9455 C   0  0  1  0  0  0  0  0  0  0  0  0
   11.6899   14.8850   23.5647 C   0  0  0  0  0  0  0  0  0  0  0  0
   10.7993   14.7818   22.3740 C   0  0  0  0  0  0  0  0  0  0  0  0
   11.1638   14.7542   21.0436 C   0  0  0  0  0  0  0  0  0  0  0  0
   10.0422   14.9205   20.2900 O   0  0  0  0  0  0  0  0  0  0  0  0
    9.0515   15.0228   21.2109 C   0  0  0  0  0  0  0  0  0  0  0  0
    9.4389   14.9089   22.4588 N   0  0  0  0  0  0  0  0  0  0  0  0
   11.0748   15.2618   26.1944 C   0  0  0  0  0  0  0  0  0  0  0  0
   11.6732   16.3178   26.3436 O   0  0  0  0  0  0  0  0  0  0  0  0
   10.1870   14.7831   27.1254 O   0  0  0  0  0  0  0  0  0  0  0  0
    9.7726   15.4654   28.3647 C   0  0  0  0  0  0  0  0  0  0  0  0
    9.4402   16.9426   28.1974 C   0  0  0  0  0  0  0  0  0  0  0  0
   10.8670   15.3000   29.4195 C   0  0  0  0  0  0  0  0  0  0  0  0
    8.4421   14.8411   28.8309 C   0  0  0  0  0  0  0  0  0  0  0  0
    7.1722   11.9008   25.6220 C   0  0  0  0  0  0  0  0  0  0  0  0
    6.2916   12.4536   26.5702 C   0  0  0  0  0  0  0  0  0  0  0  0
    5.4705   11.5943   27.2851 C   0  0  0  0  0  0  0  0  0  0  0  0
    4.6377   12.0906   28.2093 F   0  0  0  0  0  0  0  0  0  0  0  0
    5.4879   10.2315   27.0490 C   0  0  0  0  0  0  0  0  0  0  0  0
    6.3376    9.6951   26.0790 C   0  0  0  0  0  0  0  0  0  0  0  0
    7.2357   10.5287   25.4254 C   0  0  0  0  0  0  0  0  0  0  0  0
  1  2  1  0
  2  3  1  0
  3  4  2  0
  4  5  1  0
  5  6  2  0
  5  7  1  0
  7  8  1  0
  8  9  1  6
  9 10  1  0
 10 11  2  0
 11 12  1  0
 12 13  1  0
 13 14  2  0
  8 15  1  0
 15 16  2  0
 15 17  1  0
 17 18  1  0
 18 19  1  0
 18 20  1  0
 18 21  1  0
  4 22  1  0
 22 23  2  0
 23 24  1  0
 24 25  1  0
 24 26  2  0
 26 27  1  0
 27 28  2  0
 28  2  1  0
 14 10  1  0
 28 22  1  0
M  END
>  <energy_score>  (132) 
-19.337929

>  <fragmenstein_runtime>  (132) 
25.986425

>  <HIPPO Pose ID>  (132) 
503451

>  <fragmenstein_error>  (132) 


>  <alias>  (132) 
ABNAGSZVCSZFJI-UHFFFAOYSA-N-P183-P126-P183-601502

>  <orig_smiles>  (132) 
Cn1nc(C(=O)NC(Cc2cocn2)C(=O)OC(C)(C)C)c2cc(F)ccc21

>  <smiles>  (132) 
Cn1nc(C(=O)NC(Cc2cocn2)C(=O)OC(C)(C)C)c2cc(F)ccc21

>  <inchikey>  (132) 
ABNAGSZVCSZFJI-UHFFFAOYSA-N

>  <HIPPO Compound ID>  (132) 
289860

>  <fragmenstein_mode>  (132) 
expansion

>  <fragmenstein_outcome>  (132) 
too moved

>  <distance_score>  (132) 
1.982747

>  <subsites>  (132) 
None

>  <scratch_subdir>  (132) 
/opt/xchem-fragalysis-2/maxwin/BulkDock/SCRATCH/601502/ABNAGSZVCSZFJI-UHFFFAOYSA-N-P183-P126-P183-601502

>  <inspiration_score>  (132) 
None

>  <name>  (132) 
ABNAGSZVCSZFJI-UHFFFAOYSA-N-P183-P126-P183-601502

>  <ref_mols>  (132) 
A2290a,A3436a

>  <ref_pdb>  (132) 
A0514a

>  <exports>  (132) 
['/opt/xchem-fragalysis-2/maxwin/openbind-hippo/a71ev2a/cycle_01/syndirella/elabs/openbind_a71ev2a_c1_elab_chemspace_filtered.sdf', '/opt/xchem-fragalysis-2/maxwin/openbind-hippo/a71ev2a/cycle_01/syndirella/elabs/ASAP-0031281-001_elabs.sdf']

>  <Energy>  (132) 
112.002211

>  <tags>  (132) 
fragmenstein_placed,openbind_a71ev2a_c1_elabs_filtered,a71ev2a_c1_elab_bulkdock_input

>  <GNINA pK>  (132) 
nan

$$$$
ATWVTYZZYXHEHG-UHFFFAOYSA-N-P126-P126-P183-601502
     RDKit          3D

 28 31  0  0  0  0  0  0  0  0999 V2000
    8.6391   13.4487   22.5141 C   0  0  0  0  0  0  0  0  0  0  0  0
    9.5572   14.2497   21.7143 C   0  0  0  0  0  0  0  0  0  0  0  0
    8.8794   15.2283   21.0868 O   0  0  0  0  0  0  0  0  0  0  0  0
    9.8436   15.9619   20.5183 C   0  0  0  0  0  0  0  0  0  0  0  0
    9.3293   17.0951   19.8606 C   0  0  0  0  0  0  0  0  0  0  0  0
    9.3456   17.1008   18.4831 C   0  0  0  0  0  0  0  0  0  0  0  0
    8.4212   17.8816   17.8544 C   0  0  0  0  0  0  0  0  0  0  0  0
    7.6532   18.7646   18.5980 C   0  0  0  0  0  0  0  0  0  0  0  0
    7.8224   18.9185   19.9458 C   0  0  0  0  0  0  0  0  0  0  0  0
    8.6170   18.0284   20.6013 C   0  0  0  0  0  0  0  0  0  0  0  0
   11.0456   15.4825   20.6226 N   0  0  0  0  0  0  0  0  0  0  0  0
   10.9034   14.4116   21.4343 C   0  0  0  0  0  0  0  0  0  0  0  0
   12.1752   13.7811   21.8546 C   0  0  0  0  0  0  0  0  0  0  0  0
   12.3472   13.7669   23.3565 C   0  0  0  0  0  0  0  0  0  0  0  0
   11.4113   12.8612   23.9116 N   0  0  0  0  0  0  0  0  0  0  0  0
   10.4072   13.0436   25.0431 C   0  0  0  0  0  0  0  0  0  0  0  0
   10.2334   13.9423   25.7596 O   0  0  0  0  0  0  0  0  0  0  0  0
    9.5758   11.8352   25.0003 C   0  0  0  0  0  0  0  0  0  0  0  0
    9.9115   10.8497   24.1458 N   0  0  0  0  0  0  0  0  0  0  0  0
    8.9433    9.9424   24.2680 N   0  0  0  0  0  0  0  0  0  0  0  0
    9.0485    8.7808   23.4213 C   0  0  0  0  0  0  0  0  0  0  0  0
    7.9814   10.3097   25.1784 C   0  0  0  0  0  0  0  0  0  0  0  0
    6.8287    9.6915   25.6587 C   0  0  0  0  0  0  0  0  0  0  0  0
    6.0298   10.3908   26.5668 C   0  0  0  0  0  0  0  0  0  0  0  0
    6.3623   11.6771   26.9607 C   0  0  0  0  0  0  0  0  0  0  0  0
    5.5703   12.3213   27.8280 F   0  0  0  0  0  0  0  0  0  0  0  0
    7.5125   12.2987   26.4983 C   0  0  0  0  0  0  0  0  0  0  0  0
    8.3429   11.5831   25.6212 C   0  0  0  0  0  0  0  0  0  0  0  0
  1  2  1  0
  2  3  1  0
  3  4  1  0
  4  5  1  0
  5  6  2  0
  6  7  1  0
  7  8  2  0
  8  9  1  0
  9 10  2  0
  4 11  2  0
 11 12  1  0
 12 13  1  0
 13 14  1  0
 14 15  1  0
 15 16  1  0
 16 17  2  0
 16 18  1  0
 18 19  2  0
 19 20  1  0
 20 21  1  0
 20 22  1  0
 22 23  2  0
 23 24  1  0
 24 25  2  0
 25 26  1  0
 25 27  1  0
 27 28  2  0
 12  2  2  0
 28 18  1  0
 10  5  1  0
 28 22  1  0
M  END
>  <energy_score>  (133) 
-9.847137

>  <fragmenstein_runtime>  (133) 
11.269131

>  <HIPPO Pose ID>  (133) 
503452

>  <fragmenstein_error>  (133) 


>  <alias>  (133) 
ATWVTYZZYXHEHG-UHFFFAOYSA-N-P126-P126-P183-601502

>  <orig_smiles>  (133) 
Cc1oc(-c2ccccc2)nc1CCNC(=O)c1nn(C)c2ccc(F)cc12

>  <smiles>  (133) 
Cc1oc(-c2ccccc2)nc1CCNC(=O)c1nn(C)c2ccc(F)cc12

>  <inchikey>  (133) 
ATWVTYZZYXHEHG-UHFFFAOYSA-N

>  <HIPPO Compound ID>  (133) 
289861

>  <fragmenstein_mode>  (133) 
expansion

>  <fragmenstein_outcome>  (133) 
too moved

>  <distance_score>  (133) 
1.312593

>  <subsites>  (133) 
None

>  <scratch_subdir>  (133) 
/opt/xchem-fragalysis-2/maxwin/BulkDock/SCRATCH/601502/ATWVTYZZYXHEHG-UHFFFAOYSA-N-P126-P126-P183-601502

>  <inspiration_score>  (133) 
None

>  <name>  (133) 
ATWVTYZZYXHEHG-UHFFFAOYSA-N-P126-P126-P183-601502

>  <ref_mols>  (133) 
A2290a,A3436a

>  <ref_pdb>  (133) 
A0514a

>  <exports>  (133) 
['/opt/xchem-fragalysis-2/maxwin/openbind-hippo/a71ev2a/cycle_01/syndirella/elabs/openbind_a71ev2a_c1_elab_chemspace_filtered.sdf', '/opt/xchem-fragalysis-2/maxwin/openbind-hippo/a71ev2a/cycle_01/syndirella/elabs/ASAP-0031281-001_elabs.sdf']

>  <Energy>  (133) 
121.480394

>  <tags>  (133) 
fragmenstein_placed,openbind_a71ev2a_c1_elabs_filtered,a71ev2a_c1_elab_bulkdock_input

>  <GNINA pK>  (133) 
nan

$$$$
ATWVTYZZYXHEHG-UHFFFAOYSA-N-P183-P126-P183-601502
     RDKit          3D

 28 31  0  0  0  0  0  0  0  0999 V2000
   11.7875   14.5293   18.4473 C   0  0  0  0  0  0  0  0  0  0  0  0
   11.0374   14.9089   19.6096 C   0  0  0  0  0  0  0  0  0  0  0  0
    9.8540   15.4396   19.3260 O   0  0  0  0  0  0  0  0  0  0  0  0
    9.5562   16.1032   20.4601 C   0  0  0  0  0  0  0  0  0  0  0  0
    8.8370   17.2814   20.1647 C   0  0  0  0  0  0  0  0  0  0  0  0
    8.3661   17.4683   18.8850 C   0  0  0  0  0  0  0  0  0  0  0  0
    7.6211   18.5418   18.5062 C   0  0  0  0  0  0  0  0  0  0  0  0
    7.5080   19.5280   19.3616 C   0  0  0  0  0  0  0  0  0  0  0  0
    8.2032   19.4668   20.5187 C   0  0  0  0  0  0  0  0  0  0  0  0
    8.7971   18.3392   20.9900 C   0  0  0  0  0  0  0  0  0  0  0  0
   10.2487   15.7532   21.5117 N   0  0  0  0  0  0  0  0  0  0  0  0
   11.2388   14.9999   20.9565 C   0  0  0  0  0  0  0  0  0  0  0  0
   12.3773   14.5236   21.7332 C   0  0  0  0  0  0  0  0  0  0  0  0
   12.0922   14.4177   23.2109 C   0  0  0  0  0  0  0  0  0  0  0  0
   11.0137   13.5266   23.4643 N   0  0  0  0  0  0  0  0  0  0  0  0
    9.9131   13.5792   24.5118 C   0  0  0  0  0  0  0  0  0  0  0  0
    9.6566   14.3978   25.2952 O   0  0  0  0  0  0  0  0  0  0  0  0
    9.1825   12.3168   24.4227 C   0  0  0  0  0  0  0  0  0  0  0  0
    9.6456   11.2997   23.6704 N   0  0  0  0  0  0  0  0  0  0  0  0
    8.8976   10.2508   24.0445 N   0  0  0  0  0  0  0  0  0  0  0  0
    9.2472    8.9539   23.5109 C   0  0  0  0  0  0  0  0  0  0  0  0
    7.9300   10.5803   24.9680 C   0  0  0  0  0  0  0  0  0  0  0  0
    6.9680    9.8387   25.6572 C   0  0  0  0  0  0  0  0  0  0  0  0
    6.1148   10.5064   26.5392 C   0  0  0  0  0  0  0  0  0  0  0  0
    6.2115   11.8776   26.7104 C   0  0  0  0  0  0  0  0  0  0  0  0
    5.3872   12.4874   27.5727 F   0  0  0  0  0  0  0  0  0  0  0  0
    7.1644   12.6233   26.0309 C   0  0  0  0  0  0  0  0  0  0  0  0
    8.0408   11.9527   25.1592 C   0  0  0  0  0  0  0  0  0  0  0  0
  1  2  1  0
  2  3  1  0
  3  4  1  0
  4  5  1  0
  5  6  2  0
  6  7  1  0
  7  8  2  0
  8  9  1  0
  9 10  2  0
  4 11  2  0
 11 12  1  0
 12 13  1  0
 13 14  1  0
 14 15  1  0
 15 16  1  0
 16 17  2  0
 16 18  1  0
 18 19  2  0
 19 20  1  0
 20 21  1  0
 20 22  1  0
 22 23  2  0
 23 24  1  0
 24 25  2  0
 25 26  1  0
 25 27  1  0
 27 28  2  0
 12  2  2  0
 28 18  1  0
 10  5  1  0
 28 22  1  0
M  END
>  <energy_score>  (134) 
-0.807712

>  <fragmenstein_runtime>  (134) 
10.249178

>  <HIPPO Pose ID>  (134) 
503453

>  <fragmenstein_error>  (134) 


>  <alias>  (134) 
ATWVTYZZYXHEHG-UHFFFAOYSA-N-P183-P126-P183-601502

>  <orig_smiles>  (134) 
Cc1oc(-c2ccccc2)nc1CCNC(=O)c1nn(C)c2ccc(F)cc12

>  <smiles>  (134) 
Cc1oc(-c2ccccc2)nc1CCNC(=O)c1nn(C)c2ccc(F)cc12

>  <inchikey>  (134) 
ATWVTYZZYXHEHG-UHFFFAOYSA-N

>  <HIPPO Compound ID>  (134) 
289861

>  <fragmenstein_mode>  (134) 
expansion

>  <fragmenstein_outcome>  (134) 
acceptable

>  <distance_score>  (134) 
0.851283

>  <subsites>  (134) 
None

>  <scratch_subdir>  (134) 
/opt/xchem-fragalysis-2/maxwin/BulkDock/SCRATCH/601502/ATWVTYZZYXHEHG-UHFFFAOYSA-N-P183-P126-P183-601502

>  <inspiration_score>  (134) 
None

>  <name>  (134) 
ATWVTYZZYXHEHG-UHFFFAOYSA-N-P183-P126-P183-601502

>  <ref_mols>  (134) 
A2290a,A3436a

>  <ref_pdb>  (134) 
A0514a

>  <exports>  (134) 
['/opt/xchem-fragalysis-2/maxwin/openbind-hippo/a71ev2a/cycle_01/bulkdock/openbind_a71ev2a_c1_elab_chemspace.sdf', '/opt/xchem-fragalysis-2/maxwin/openbind-hippo/a71ev2a/cycle_01/syndirella/elabs/openbind_a71ev2a_c1_elab_chemspace_filtered.sdf', '/opt/xchem-fragalysis-2/maxwin/BulkDock/OUTPUTS/a71ev2a_c1_elab_bulkdock_input_1GFT2LV.sdf', '/opt/xchem-fragalysis-2/maxwin/openbind-hippo/a71ev2a/cycle_01/syndirella/elabs/ASAP-0031281-001_elabs.sdf']

>  <Energy>  (134) 
130.519818

>  <tags>  (134) 
fragmenstein_placed,a71ev2a_c1_elab_bulkdock_input,BulkDock Fragalysis export,openbind_a71ev2a_c1_elabs_filtered

>  <GNINA pK>  (134) 
nan

$$$$
JNAGOACLKSWBJD-UHFFFAOYSA-N-P126-P126-P183-601502
     RDKit          3D

 28 31  0  0  0  0  0  0  0  0999 V2000
    9.1964    8.8285   23.2747 C   0  0  0  0  0  0  0  0  0  0  0  0
    8.9990   10.0716   23.9811 N   0  0  0  0  0  0  0  0  0  0  0  0
    9.8196   11.0897   23.6909 N   0  0  0  0  0  0  0  0  0  0  0  0
    9.4341   12.0750   24.5247 C   0  0  0  0  0  0  0  0  0  0  0  0
   10.2166   13.3057   24.6207 C   0  0  0  0  0  0  0  0  0  0  0  0
   10.0375   14.1150   25.4358 O   0  0  0  0  0  0  0  0  0  0  0  0
   11.2772   13.2178   23.5326 N   0  0  0  0  0  0  0  0  0  0  0  0
   12.2811   14.1382   23.1500 C   0  0  0  0  0  0  0  0  0  0  0  0
   12.6543   14.0599   21.7024 C   0  0  0  0  0  0  0  0  0  0  0  0
   11.6501   14.5449   20.7701 C   0  0  0  0  0  0  0  0  0  0  0  0
   11.6894   14.4042   19.4108 C   0  0  0  0  0  0  0  0  0  0  0  0
   10.6654   15.0913   18.9031 O   0  0  0  0  0  0  0  0  0  0  0  0
   10.1211   15.7065   19.9768 C   0  0  0  0  0  0  0  0  0  0  0  0
    9.3326   16.8416   19.6354 C   0  0  0  0  0  0  0  0  0  0  0  0
    9.1093   17.1630   18.3049 C   0  0  0  0  0  0  0  0  0  0  0  0
    8.2317   18.1570   17.9975 C   0  0  0  0  0  0  0  0  0  0  0  0
    7.7040   18.9137   19.0121 C   0  0  0  0  0  0  0  0  0  0  0  0
    6.7854   19.8191   18.7212 F   0  0  0  0  0  0  0  0  0  0  0  0
    8.0825   18.7499   20.3071 C   0  0  0  0  0  0  0  0  0  0  0  0
    8.8268   17.6531   20.6294 C   0  0  0  0  0  0  0  0  0  0  0  0
   10.6017   15.3346   21.1414 N   0  0  0  0  0  0  0  0  0  0  0  0
    8.3034   11.7171   25.2790 C   0  0  0  0  0  0  0  0  0  0  0  0
    7.4992   12.3625   26.2334 C   0  0  0  0  0  0  0  0  0  0  0  0
    6.4861   11.6320   26.8391 C   0  0  0  0  0  0  0  0  0  0  0  0
    5.7178   12.2173   27.7677 F   0  0  0  0  0  0  0  0  0  0  0  0
    6.2716   10.2985   26.5267 C   0  0  0  0  0  0  0  0  0  0  0  0
    7.0647    9.6546   25.5741 C   0  0  0  0  0  0  0  0  0  0  0  0
    8.0738   10.3848   24.9489 C   0  0  0  0  0  0  0  0  0  0  0  0
  1  2  1  0
  2  3  1  0
  3  4  2  0
  4  5  1  0
  5  6  2  0
  5  7  1  0
  7  8  1  0
  8  9  1  0
  9 10  1  0
 10 11  2  0
 11 12  1  0
 12 13  1  0
 13 14  1  0
 14 15  2  0
 15 16  1  0
 16 17  2  0
 17 18  1  0
 17 19  1  0
 19 20  2  0
 13 21  2  0
  4 22  1  0
 22 23  2  0
 23 24  1  0
 24 25  1  0
 24 26  2  0
 26 27  1  0
 27 28  2  0
 28  2  1  0
 21 10  1  0
 28 22  1  0
 20 14  1  0
M  END
>  <energy_score>  (135) 
-0.652919

>  <fragmenstein_runtime>  (135) 
5.597299

>  <HIPPO Pose ID>  (135) 
503454

>  <fragmenstein_error>  (135) 


>  <alias>  (135) 
JNAGOACLKSWBJD-UHFFFAOYSA-N-P126-P126-P183-601502

>  <orig_smiles>  (135) 
Cn1nc(C(=O)NCCc2coc(-c3ccc(F)cc3)n2)c2cc(F)ccc21

>  <smiles>  (135) 
Cn1nc(C(=O)NCCc2coc(-c3ccc(F)cc3)n2)c2cc(F)ccc21

>  <inchikey>  (135) 
JNAGOACLKSWBJD-UHFFFAOYSA-N

>  <HIPPO Compound ID>  (135) 
289862

>  <fragmenstein_mode>  (135) 
expansion

>  <fragmenstein_outcome>  (135) 
acceptable

>  <distance_score>  (135) 
0.981433

>  <subsites>  (135) 
None

>  <scratch_subdir>  (135) 
/opt/xchem-fragalysis-2/maxwin/BulkDock/SCRATCH/601502/JNAGOACLKSWBJD-UHFFFAOYSA-N-P126-P126-P183-601502

>  <inspiration_score>  (135) 
None

>  <name>  (135) 
JNAGOACLKSWBJD-UHFFFAOYSA-N-P126-P126-P183-601502

>  <ref_mols>  (135) 
A2290a,A3436a

>  <ref_pdb>  (135) 
A0514a

>  <exports>  (135) 
['/opt/xchem-fragalysis-2/maxwin/openbind-hippo/a71ev2a/cycle_01/syndirella/elabs/openbind_a71ev2a_c1_elab_chemspace_filtered.sdf', '/opt/xchem-fragalysis-2/maxwin/BulkDock/OUTPUTS/a71ev2a_c1_elab_bulkdock_input_1GFT2LV.sdf', '/opt/xchem-fragalysis-2/maxwin/openbind-hippo/a71ev2a/cycle_01/syndirella/elabs/ASAP-0031281-001_elabs.sdf']

>  <Energy>  (135) 
103.014326

>  <tags>  (135) 
fragmenstein_placed,a71ev2a_c1_elab_bulkdock_input,BulkDock Fragalysis export,openbind_a71ev2a_c1_elabs_filtered

>  <GNINA pK>  (135) 
nan

$$$$
JNAGOACLKSWBJD-UHFFFAOYSA-N-P183-P126-P183-601502
     RDKit          3D

 28 31  0  0  0  0  0  0  0  0999 V2000
    9.2839    8.9436   23.4687 C   0  0  0  0  0  0  0  0  0  0  0  0
    8.9731   10.2639   23.9674 N   0  0  0  0  0  0  0  0  0  0  0  0
    9.7296   11.2870   23.5404 N   0  0  0  0  0  0  0  0  0  0  0  0
    9.3134   12.3365   24.2737 C   0  0  0  0  0  0  0  0  0  0  0  0
   10.0719   13.5919   24.2934 C   0  0  0  0  0  0  0  0  0  0  0  0
    9.9008   14.4043   25.1069 O   0  0  0  0  0  0  0  0  0  0  0  0
   11.0706   13.5388   23.1450 N   0  0  0  0  0  0  0  0  0  0  0  0
   12.0119   14.5101   22.6874 C   0  0  0  0  0  0  0  0  0  0  0  0
   12.4009   14.2699   21.2449 C   0  0  0  0  0  0  0  0  0  0  0  0
   11.3875   14.5908   20.2535 C   0  0  0  0  0  0  0  0  0  0  0  0
   11.5032   14.7265   18.8935 C   0  0  0  0  0  0  0  0  0  0  0  0
   10.4138   15.4032   18.4675 O   0  0  0  0  0  0  0  0  0  0  0  0
    9.7285   15.5943   19.6113 C   0  0  0  0  0  0  0  0  0  0  0  0
    9.0772   16.8425   19.7107 C   0  0  0  0  0  0  0  0  0  0  0  0
    8.3614   17.4482   18.7094 C   0  0  0  0  0  0  0  0  0  0  0  0
    7.7387   18.6577   18.8511 C   0  0  0  0  0  0  0  0  0  0  0  0
    7.9067   19.2590   20.0329 C   0  0  0  0  0  0  0  0  0  0  0  0
    7.1412   20.2918   20.3019 F   0  0  0  0  0  0  0  0  0  0  0  0
    8.6729   18.7016   21.0152 C   0  0  0  0  0  0  0  0  0  0  0  0
    9.2419   17.4856   20.8827 C   0  0  0  0  0  0  0  0  0  0  0  0
   10.1403   14.9124   20.6472 N   0  0  0  0  0  0  0  0  0  0  0  0
    8.1752   12.0152   25.0437 C   0  0  0  0  0  0  0  0  0  0  0  0
    7.3194   12.7272   25.9035 C   0  0  0  0  0  0  0  0  0  0  0  0
    6.3561   12.0205   26.6130 C   0  0  0  0  0  0  0  0  0  0  0  0
    5.5539   12.6738   27.4643 F   0  0  0  0  0  0  0  0  0  0  0  0
    6.2283   10.6462   26.4856 C   0  0  0  0  0  0  0  0  0  0  0  0
    7.0615    9.9333   25.6201 C   0  0  0  0  0  0  0  0  0  0  0  0
    8.0276   10.6391   24.8954 C   0  0  0  0  0  0  0  0  0  0  0  0
  1  2  1  0
  2  3  1  0
  3  4  2  0
  4  5  1  0
  5  6  2  0
  5  7  1  0
  7  8  1  0
  8  9  1  0
  9 10  1  0
 10 11  2  0
 11 12  1  0
 12 13  1  0
 13 14  1  0
 14 15  2  0
 15 16  1  0
 16 17  2  0
 17 18  1  0
 17 19  1  0
 19 20  2  0
 13 21  2  0
  4 22  1  0
 22 23  2  0
 23 24  1  0
 24 25  1  0
 24 26  2  0
 26 27  1  0
 27 28  2  0
 28  2  1  0
 21 10  1  0
 28 22  1  0
 20 14  1  0
M  END
>  <energy_score>  (136) 
18.548149

>  <fragmenstein_runtime>  (136) 
4.936457

>  <HIPPO Pose ID>  (136) 
503455

>  <fragmenstein_error>  (136) 


>  <alias>  (136) 
JNAGOACLKSWBJD-UHFFFAOYSA-N-P183-P126-P183-601502

>  <orig_smiles>  (136) 
Cn1nc(C(=O)NCCc2coc(-c3ccc(F)cc3)n2)c2cc(F)ccc21

>  <smiles>  (136) 
Cn1nc(C(=O)NCCc2coc(-c3ccc(F)cc3)n2)c2cc(F)ccc21

>  <inchikey>  (136) 
JNAGOACLKSWBJD-UHFFFAOYSA-N

>  <HIPPO Compound ID>  (136) 
289862

>  <fragmenstein_mode>  (136) 
expansion

>  <fragmenstein_outcome>  (136) 
too contorted

>  <distance_score>  (136) 
0.899066

>  <subsites>  (136) 
None

>  <scratch_subdir>  (136) 
/opt/xchem-fragalysis-2/maxwin/BulkDock/SCRATCH/601502/JNAGOACLKSWBJD-UHFFFAOYSA-N-P183-P126-P183-601502

>  <inspiration_score>  (136) 
None

>  <name>  (136) 
JNAGOACLKSWBJD-UHFFFAOYSA-N-P183-P126-P183-601502

>  <ref_mols>  (136) 
A2290a,A3436a

>  <ref_pdb>  (136) 
A0514a

>  <exports>  (136) 
['/opt/xchem-fragalysis-2/maxwin/openbind-hippo/a71ev2a/cycle_01/bulkdock/openbind_a71ev2a_c1_elab_chemspace.sdf', '/opt/xchem-fragalysis-2/maxwin/openbind-hippo/a71ev2a/cycle_01/syndirella/elabs/ASAP-0031281-001_elabs.sdf']

>  <Energy>  (136) 
122.215394

>  <tags>  (136) 
fragmenstein_placed,a71ev2a_c1_elab_bulkdock_input

>  <GNINA pK>  (136) 
nan

$$$$
OYDVKSICLADJQR-UHFFFAOYSA-N-P126-P126-P183-601502
     RDKit          3D

 28 31  0  0  0  0  0  0  0  0999 V2000
    9.2068    8.8257   23.2684 C   0  0  0  0  0  0  0  0  0  0  0  0
    9.0125   10.0662   23.9802 N   0  0  0  0  0  0  0  0  0  0  0  0
    9.8421   11.0803   23.7024 N   0  0  0  0  0  0  0  0  0  0  0  0
    9.4427   12.0703   24.5246 C   0  0  0  0  0  0  0  0  0  0  0  0
   10.2251   13.3007   24.6236 C   0  0  0  0  0  0  0  0  0  0  0  0
   10.0666   14.0939   25.4586 O   0  0  0  0  0  0  0  0  0  0  0  0
   11.2705   13.2239   23.5203 N   0  0  0  0  0  0  0  0  0  0  0  0
   12.2805   14.1397   23.1453 C   0  0  0  0  0  0  0  0  0  0  0  0
   12.6543   14.0635   21.6980 C   0  0  0  0  0  0  0  0  0  0  0  0
   11.6497   14.5485   20.7667 C   0  0  0  0  0  0  0  0  0  0  0  0
   11.6862   14.4054   19.4075 C   0  0  0  0  0  0  0  0  0  0  0  0
   10.6617   15.0925   18.9009 O   0  0  0  0  0  0  0  0  0  0  0  0
   10.1202   15.7097   19.9746 C   0  0  0  0  0  0  0  0  0  0  0  0
    9.3313   16.8442   19.6336 C   0  0  0  0  0  0  0  0  0  0  0  0
    9.1075   17.1651   18.3031 C   0  0  0  0  0  0  0  0  0  0  0  0
    8.2296   18.1588   17.9963 C   0  0  0  0  0  0  0  0  0  0  0  0
    7.7023   18.9152   19.0114 C   0  0  0  0  0  0  0  0  0  0  0  0
    6.7839   19.8208   18.7208 F   0  0  0  0  0  0  0  0  0  0  0  0
    8.0813   18.7517   20.3063 C   0  0  0  0  0  0  0  0  0  0  0  0
    8.8260   17.6553   20.6282 C   0  0  0  0  0  0  0  0  0  0  0  0
   10.6038   15.3410   21.1388 N   0  0  0  0  0  0  0  0  0  0  0  0
    8.3076   11.7120   25.2719 C   0  0  0  0  0  0  0  0  0  0  0  0
    7.4941   12.3598   26.2184 C   0  0  0  0  0  0  0  0  0  0  0  0
    6.4734   11.6313   26.8226 C   0  0  0  0  0  0  0  0  0  0  0  0
    5.3644   12.4653   28.1068 Br  0  0  0  0  0  0  0  0  0  0  0  0
    6.2701   10.2923   26.5104 C   0  0  0  0  0  0  0  0  0  0  0  0
    7.0740    9.6493   25.5653 C   0  0  0  0  0  0  0  0  0  0  0  0
    8.0836   10.3794   24.9439 C   0  0  0  0  0  0  0  0  0  0  0  0
  1  2  1  0
  2  3  1  0
  3  4  2  0
  4  5  1  0
  5  6  2  0
  5  7  1  0
  7  8  1  0
  8  9  1  0
  9 10  1  0
 10 11  2  0
 11 12  1  0
 12 13  1  0
 13 14  1  0
 14 15  2  0
 15 16  1  0
 16 17  2  0
 17 18  1  0
 17 19  1  0
 19 20  2  0
 13 21  2  0
  4 22  1  0
 22 23  2  0
 23 24  1  0
 24 25  1  0
 24 26  2  0
 26 27  1  0
 27 28  2  0
 28  2  1  0
 21 10  1  0
 28 22  1  0
 20 14  1  0
M  END
>  <energy_score>  (137) 
-0.477967

>  <fragmenstein_runtime>  (137) 
4.344628

>  <HIPPO Pose ID>  (137) 
503456

>  <fragmenstein_error>  (137) 


>  <alias>  (137) 
OYDVKSICLADJQR-UHFFFAOYSA-N-P126-P126-P183-601502

>  <orig_smiles>  (137) 
Cn1nc(C(=O)NCCc2coc(-c3ccc(F)cc3)n2)c2cc(Br)ccc21

>  <smiles>  (137) 
Cn1nc(C(=O)NCCc2coc(-c3ccc(F)cc3)n2)c2cc(Br)ccc21

>  <inchikey>  (137) 
OYDVKSICLADJQR-UHFFFAOYSA-N

>  <HIPPO Compound ID>  (137) 
289863

>  <fragmenstein_mode>  (137) 
expansion

>  <fragmenstein_outcome>  (137) 
acceptable

>  <distance_score>  (137) 
0.978139

>  <subsites>  (137) 
None

>  <scratch_subdir>  (137) 
/opt/xchem-fragalysis-2/maxwin/BulkDock/SCRATCH/601502/OYDVKSICLADJQR-UHFFFAOYSA-N-P126-P126-P183-601502

>  <inspiration_score>  (137) 
None

>  <name>  (137) 
OYDVKSICLADJQR-UHFFFAOYSA-N-P126-P126-P183-601502

>  <ref_mols>  (137) 
A2290a,A3436a

>  <ref_pdb>  (137) 
A0514a

>  <exports>  (137) 
['/opt/xchem-fragalysis-2/maxwin/openbind-hippo/a71ev2a/cycle_01/syndirella/elabs/openbind_a71ev2a_c1_elab_chemspace_filtered.sdf', '/opt/xchem-fragalysis-2/maxwin/BulkDock/OUTPUTS/a71ev2a_c1_elab_bulkdock_input_1GFT2LV.sdf', '/opt/xchem-fragalysis-2/maxwin/openbind-hippo/a71ev2a/cycle_01/syndirella/elabs/ASAP-0031281-001_elabs.sdf']

>  <Energy>  (137) 
105.56252

>  <tags>  (137) 
fragmenstein_placed,a71ev2a_c1_elab_bulkdock_input,BulkDock Fragalysis export,openbind_a71ev2a_c1_elabs_filtered

>  <GNINA pK>  (137) 
nan

$$$$
OYDVKSICLADJQR-UHFFFAOYSA-N-P183-P126-P183-601502
     RDKit          3D

 28 31  0  0  0  0  0  0  0  0999 V2000
    9.2904    8.9413   23.4549 C   0  0  0  0  0  0  0  0  0  0  0  0
    8.9783   10.2555   23.9688 N   0  0  0  0  0  0  0  0  0  0  0  0
    9.7304   11.2848   23.5500 N   0  0  0  0  0  0  0  0  0  0  0  0
    9.3054   12.3278   24.2876 C   0  0  0  0  0  0  0  0  0  0  0  0
   10.0466   13.5921   24.2989 C   0  0  0  0  0  0  0  0  0  0  0  0
    9.8807   14.4028   25.1150 O   0  0  0  0  0  0  0  0  0  0  0  0
   10.9862   13.5739   23.1018 N   0  0  0  0  0  0  0  0  0  0  0  0
   11.9919   14.5016   22.6975 C   0  0  0  0  0  0  0  0  0  0  0  0
   12.3981   14.2731   21.2571 C   0  0  0  0  0  0  0  0  0  0  0  0
   11.3936   14.5973   20.2560 C   0  0  0  0  0  0  0  0  0  0  0  0
   11.5158   14.7324   18.8967 C   0  0  0  0  0  0  0  0  0  0  0  0
   10.4288   15.4104   18.4646 O   0  0  0  0  0  0  0  0  0  0  0  0
    9.7351   15.5978   19.6040 C   0  0  0  0  0  0  0  0  0  0  0  0
    9.0805   16.8441   19.7056 C   0  0  0  0  0  0  0  0  0  0  0  0
    8.3609   17.4488   18.7068 C   0  0  0  0  0  0  0  0  0  0  0  0
    7.7377   18.6578   18.8504 C   0  0  0  0  0  0  0  0  0  0  0  0
    7.9065   19.2585   20.0327 C   0  0  0  0  0  0  0  0  0  0  0  0
    7.1412   20.2913   20.3023 F   0  0  0  0  0  0  0  0  0  0  0  0
    8.6729   18.7003   21.0144 C   0  0  0  0  0  0  0  0  0  0  0  0
    9.2437   17.4853   20.8794 C   0  0  0  0  0  0  0  0  0  0  0  0
   10.1423   14.9151   20.6403 N   0  0  0  0  0  0  0  0  0  0  0  0
    8.1707   11.9952   25.0564 C   0  0  0  0  0  0  0  0  0  0  0  0
    7.3065   12.6995   25.9157 C   0  0  0  0  0  0  0  0  0  0  0  0
    6.3386   11.9868   26.6200 C   0  0  0  0  0  0  0  0  0  0  0  0
    5.1806   12.9001   27.8026 Br  0  0  0  0  0  0  0  0  0  0  0  0
    6.2236   10.6090   26.4813 C   0  0  0  0  0  0  0  0  0  0  0  0
    7.0665    9.9076   25.6148 C   0  0  0  0  0  0  0  0  0  0  0  0
    8.0308   10.6207   24.8983 C   0  0  0  0  0  0  0  0  0  0  0  0
  1  2  1  0
  2  3  1  0
  3  4  2  0
  4  5  1  0
  5  6  2  0
  5  7  1  0
  7  8  1  0
  8  9  1  0
  9 10  1  0
 10 11  2  0
 11 12  1  0
 12 13  1  0
 13 14  1  0
 14 15  2  0
 15 16  1  0
 16 17  2  0
 17 18  1  0
 17 19  1  0
 19 20  2  0
 13 21  2  0
  4 22  1  0
 22 23  2  0
 23 24  1  0
 24 25  1  0
 24 26  2  0
 26 27  1  0
 27 28  2  0
 28  2  1  0
 21 10  1  0
 28 22  1  0
 20 14  1  0
M  END
>  <energy_score>  (138) 
19.098646

>  <fragmenstein_runtime>  (138) 
5.67951

>  <HIPPO Pose ID>  (138) 
503457

>  <fragmenstein_error>  (138) 


>  <alias>  (138) 
OYDVKSICLADJQR-UHFFFAOYSA-N-P183-P126-P183-601502

>  <orig_smiles>  (138) 
Cn1nc(C(=O)NCCc2coc(-c3ccc(F)cc3)n2)c2cc(Br)ccc21

>  <smiles>  (138) 
Cn1nc(C(=O)NCCc2coc(-c3ccc(F)cc3)n2)c2cc(Br)ccc21

>  <inchikey>  (138) 
OYDVKSICLADJQR-UHFFFAOYSA-N

>  <HIPPO Compound ID>  (138) 
289863

>  <fragmenstein_mode>  (138) 
expansion

>  <fragmenstein_outcome>  (138) 
too contorted

>  <distance_score>  (138) 
0.903427

>  <subsites>  (138) 
None

>  <scratch_subdir>  (138) 
/opt/xchem-fragalysis-2/maxwin/BulkDock/SCRATCH/601502/OYDVKSICLADJQR-UHFFFAOYSA-N-P183-P126-P183-601502

>  <inspiration_score>  (138) 
None

>  <name>  (138) 
OYDVKSICLADJQR-UHFFFAOYSA-N-P183-P126-P183-601502

>  <ref_mols>  (138) 
A2290a,A3436a

>  <ref_pdb>  (138) 
A0514a

>  <exports>  (138) 
['/opt/xchem-fragalysis-2/maxwin/openbind-hippo/a71ev2a/cycle_01/bulkdock/openbind_a71ev2a_c1_elab_chemspace.sdf', '/opt/xchem-fragalysis-2/maxwin/openbind-hippo/a71ev2a/cycle_01/syndirella/elabs/ASAP-0031281-001_elabs.sdf']

>  <Energy>  (138) 
125.139132

>  <tags>  (138) 
fragmenstein_placed,a71ev2a_c1_elab_bulkdock_input

>  <GNINA pK>  (138) 
nan

$$$$
OYUUWKZKBCCSOR-UHFFFAOYSA-N-P126-P126-P183-601502
     RDKit          3D

 28 31  0  0  0  0  0  0  0  0999 V2000
   11.9564   14.2206   18.5152 C   0  0  0  0  0  0  0  0  0  0  0  0
   11.1974   14.5909   19.6735 C   0  0  0  0  0  0  0  0  0  0  0  0
    9.9885   15.0656   19.4062 O   0  0  0  0  0  0  0  0  0  0  0  0
    9.7965   15.8980   20.4419 C   0  0  0  0  0  0  0  0  0  0  0  0
    9.1692   17.0820   19.9647 C   0  0  0  0  0  0  0  0  0  0  0  0
    9.1277   17.2746   18.5702 C   0  0  0  0  0  0  0  0  0  0  0  0
    8.2539   18.1702   18.0468 C   0  0  0  0  0  0  0  0  0  0  0  0
    7.5852   18.9924   18.9117 C   0  0  0  0  0  0  0  0  0  0  0  0
    7.8655   19.0000   20.2487 C   0  0  0  0  0  0  0  0  0  0  0  0
    8.5939   17.9916   20.8036 C   0  0  0  0  0  0  0  0  0  0  0  0
   10.4839   15.5895   21.5191 N   0  0  0  0  0  0  0  0  0  0  0  0
   11.4228   14.7327   21.0070 C   0  0  0  0  0  0  0  0  0  0  0  0
   12.5883   14.2416   21.7322 C   0  0  0  0  0  0  0  0  0  0  0  0
   12.3592   14.1069   23.2066 C   0  0  0  0  0  0  0  0  0  0  0  0
   11.3565   13.1763   23.5657 N   0  0  0  0  0  0  0  0  0  0  0  0
   10.2486   13.2669   24.6072 C   0  0  0  0  0  0  0  0  0  0  0  0
   10.0211   14.0893   25.3970 O   0  0  0  0  0  0  0  0  0  0  0  0
    9.4707   12.0370   24.4945 C   0  0  0  0  0  0  0  0  0  0  0  0
    9.8692   11.0503   23.6698 N   0  0  0  0  0  0  0  0  0  0  0  0
    9.0440   10.0338   23.9518 N   0  0  0  0  0  0  0  0  0  0  0  0
    9.2377    8.7934   23.2400 C   0  0  0  0  0  0  0  0  0  0  0  0
    8.1114   10.3479   24.9121 C   0  0  0  0  0  0  0  0  0  0  0  0
    7.1087    9.6158   25.5414 C   0  0  0  0  0  0  0  0  0  0  0  0
    6.2991   10.2591   26.4816 C   0  0  0  0  0  0  0  0  0  0  0  0
    6.4894   11.6029   26.7802 C   0  0  0  0  0  0  0  0  0  0  0  0
    5.3714   12.4401   28.0542 Br  0  0  0  0  0  0  0  0  0  0  0  0
    7.5060   12.3330   26.1712 C   0  0  0  0  0  0  0  0  0  0  0  0
    8.3273   11.6827   25.2323 C   0  0  0  0  0  0  0  0  0  0  0  0
  1  2  1  0
  2  3  1  0
  3  4  1  0
  4  5  1  0
  5  6  2  0
  6  7  1  0
  7  8  2  0
  8  9  1  0
  9 10  2  0
  4 11  2  0
 11 12  1  0
 12 13  1  0
 13 14  1  0
 14 15  1  0
 15 16  1  0
 16 17  2  0
 16 18  1  0
 18 19  2  0
 19 20  1  0
 20 21  1  0
 20 22  1  0
 22 23  2  0
 23 24  1  0
 24 25  2  0
 25 26  1  0
 25 27  1  0
 27 28  2  0
 12  2  2  0
 28 18  1  0
 10  5  1  0
 28 22  1  0
M  END
>  <energy_score>  (139) 
23.345224

>  <fragmenstein_runtime>  (139) 
4.889779

>  <HIPPO Pose ID>  (139) 
503458

>  <fragmenstein_error>  (139) 


>  <alias>  (139) 
OYUUWKZKBCCSOR-UHFFFAOYSA-N-P126-P126-P183-601502

>  <orig_smiles>  (139) 
Cc1oc(-c2ccccc2)nc1CCNC(=O)c1nn(C)c2ccc(Br)cc12

>  <smiles>  (139) 
Cc1oc(-c2ccccc2)nc1CCNC(=O)c1nn(C)c2ccc(Br)cc12

>  <inchikey>  (139) 
OYUUWKZKBCCSOR-UHFFFAOYSA-N

>  <HIPPO Compound ID>  (139) 
289864

>  <fragmenstein_mode>  (139) 
expansion

>  <fragmenstein_outcome>  (139) 
too contorted

>  <distance_score>  (139) 
0.864681

>  <subsites>  (139) 
None

>  <scratch_subdir>  (139) 
/opt/xchem-fragalysis-2/maxwin/BulkDock/SCRATCH/601502/OYUUWKZKBCCSOR-UHFFFAOYSA-N-P126-P126-P183-601502

>  <inspiration_score>  (139) 
None

>  <name>  (139) 
OYUUWKZKBCCSOR-UHFFFAOYSA-N-P126-P126-P183-601502

>  <ref_mols>  (139) 
A2290a,A3436a

>  <ref_pdb>  (139) 
A0514a

>  <exports>  (139) 
['/opt/xchem-fragalysis-2/maxwin/openbind-hippo/a71ev2a/cycle_01/syndirella/elabs/ASAP-0031281-001_elabs.sdf']

>  <Energy>  (139) 
132.140147

>  <tags>  (139) 
fragmenstein_placed,a71ev2a_c1_elab_bulkdock_input

>  <GNINA pK>  (139) 
nan

$$$$
OYUUWKZKBCCSOR-UHFFFAOYSA-N-P183-P126-P183-601502
     RDKit          3D

 28 31  0  0  0  0  0  0  0  0999 V2000
   11.7774   14.5304   18.4554 C   0  0  0  0  0  0  0  0  0  0  0  0
   11.0237   14.8933   19.6221 C   0  0  0  0  0  0  0  0  0  0  0  0
    9.8382   15.4205   19.3426 O   0  0  0  0  0  0  0  0  0  0  0  0
    9.5432   16.0852   20.4771 C   0  0  0  0  0  0  0  0  0  0  0  0
    8.8376   17.2717   20.1759 C   0  0  0  0  0  0  0  0  0  0  0  0
    8.3748   17.4612   18.8931 C   0  0  0  0  0  0  0  0  0  0  0  0
    7.6298   18.5348   18.5120 C   0  0  0  0  0  0  0  0  0  0  0  0
    7.5134   19.5224   19.3654 C   0  0  0  0  0  0  0  0  0  0  0  0
    8.2078   19.4616   20.5227 C   0  0  0  0  0  0  0  0  0  0  0  0
    8.7995   18.3330   20.9965 C   0  0  0  0  0  0  0  0  0  0  0  0
   10.2302   15.7234   21.5298 N   0  0  0  0  0  0  0  0  0  0  0  0
   11.2229   14.9761   20.9704 C   0  0  0  0  0  0  0  0  0  0  0  0
   12.3739   14.5131   21.7347 C   0  0  0  0  0  0  0  0  0  0  0  0
   12.1288   14.4290   23.2206 C   0  0  0  0  0  0  0  0  0  0  0  0
   11.1228   13.4767   23.5412 N   0  0  0  0  0  0  0  0  0  0  0  0
    9.9296   13.5760   24.4809 C   0  0  0  0  0  0  0  0  0  0  0  0
    9.6116   14.4242   25.2083 O   0  0  0  0  0  0  0  0  0  0  0  0
    9.1999   12.3132   24.3814 C   0  0  0  0  0  0  0  0  0  0  0  0
    9.6643   11.2978   23.6277 N   0  0  0  0  0  0  0  0  0  0  0  0
    8.9267   10.2448   24.0106 N   0  0  0  0  0  0  0  0  0  0  0  0
    9.2785    8.9489   23.4764 C   0  0  0  0  0  0  0  0  0  0  0  0
    7.9590   10.5713   24.9343 C   0  0  0  0  0  0  0  0  0  0  0  0
    7.0077    9.8254   25.6315 C   0  0  0  0  0  0  0  0  0  0  0  0
    6.1472   10.4874   26.5117 C   0  0  0  0  0  0  0  0  0  0  0  0
    6.2267   11.8639   26.6781 C   0  0  0  0  0  0  0  0  0  0  0  0
    5.0449   12.7246   27.8758 Br  0  0  0  0  0  0  0  0  0  0  0  0
    7.1774   12.6118   25.9898 C   0  0  0  0  0  0  0  0  0  0  0  0
    8.0583   11.9446   25.1179 C   0  0  0  0  0  0  0  0  0  0  0  0
  1  2  1  0
  2  3  1  0
  3  4  1  0
  4  5  1  0
  5  6  2  0
  6  7  1  0
  7  8  2  0
  8  9  1  0
  9 10  2  0
  4 11  2  0
 11 12  1  0
 12 13  1  0
 13 14  1  0
 14 15  1  0
 15 16  1  0
 16 17  2  0
 16 18  1  0
 18 19  2  0
 19 20  1  0
 20 21  1  0
 20 22  1  0
 22 23  2  0
 23 24  1  0
 24 25  2  0
 25 26  1  0
 25 27  1  0
 27 28  2  0
 12  2  2  0
 28 18  1  0
 10  5  1  0
 28 22  1  0
M  END
>  <energy_score>  (140) 
25.13628

>  <fragmenstein_runtime>  (140) 
8.700131

>  <HIPPO Pose ID>  (140) 
503459

>  <fragmenstein_error>  (140) 


>  <alias>  (140) 
OYUUWKZKBCCSOR-UHFFFAOYSA-N-P183-P126-P183-601502

>  <orig_smiles>  (140) 
Cc1oc(-c2ccccc2)nc1CCNC(=O)c1nn(C)c2ccc(Br)cc12

>  <smiles>  (140) 
Cc1oc(-c2ccccc2)nc1CCNC(=O)c1nn(C)c2ccc(Br)cc12

>  <inchikey>  (140) 
OYUUWKZKBCCSOR-UHFFFAOYSA-N

>  <HIPPO Compound ID>  (140) 
289864

>  <fragmenstein_mode>  (140) 
expansion

>  <fragmenstein_outcome>  (140) 
too contorted

>  <distance_score>  (140) 
0.841254

>  <subsites>  (140) 
None

>  <scratch_subdir>  (140) 
/opt/xchem-fragalysis-2/maxwin/BulkDock/SCRATCH/601502/OYUUWKZKBCCSOR-UHFFFAOYSA-N-P183-P126-P183-601502

>  <inspiration_score>  (140) 
None

>  <name>  (140) 
OYUUWKZKBCCSOR-UHFFFAOYSA-N-P183-P126-P183-601502

>  <ref_mols>  (140) 
A2290a,A3436a

>  <ref_pdb>  (140) 
A0514a

>  <exports>  (140) 
['/opt/xchem-fragalysis-2/maxwin/openbind-hippo/a71ev2a/cycle_01/bulkdock/openbind_a71ev2a_c1_elab_chemspace.sdf', '/opt/xchem-fragalysis-2/maxwin/openbind-hippo/a71ev2a/cycle_01/syndirella/elabs/ASAP-0031281-001_elabs.sdf']

>  <Energy>  (140) 
133.931204

>  <tags>  (140) 
fragmenstein_placed,a71ev2a_c1_elab_bulkdock_input

>  <GNINA pK>  (140) 
nan

$$$$
KMUFPHPBOXOVEH-UHFFFAOYSA-N-P126-P126-P183-601502
     RDKit          3D

 28 31  0  0  0  0  0  0  0  0999 V2000
    8.5999   17.3829   20.6674 C   0  0  0  0  0  0  0  0  0  0  0  0
    9.5441   16.2604   20.5594 C   0  0  0  0  0  0  0  0  0  0  0  0
   10.1411   15.6139   21.5373 N   0  0  0  0  0  0  0  0  0  0  0  0
   11.0868   14.8617   20.9151 C   0  0  0  0  0  0  0  0  0  0  0  0
   12.2043   14.2139   21.6333 C   0  0  0  0  0  0  0  0  0  0  0  0
   12.0771   14.3087   23.1374 C   0  0  0  0  0  0  0  0  0  0  0  0
   10.9458   13.6062   23.6408 N   0  0  0  0  0  0  0  0  0  0  0  0
   10.1395   13.8074   24.9324 C   0  0  0  0  0  0  0  0  0  0  0  0
   10.3172   14.5303   25.8301 O   0  0  0  0  0  0  0  0  0  0  0  0
    9.0753   12.8055   24.8829 C   0  0  0  0  0  0  0  0  0  0  0  0
    9.1273   11.8984   23.8937 N   0  0  0  0  0  0  0  0  0  0  0  0
    8.4261   10.8858   24.3757 N   0  0  0  0  0  0  0  0  0  0  0  0
    8.9566    9.5648   24.1852 C   0  0  0  0  0  0  0  0  0  0  0  0
   10.0894    9.4732   23.1544 C   0  0  1  0  0  0  0  0  0  0  0  0
   10.9936    8.3083   23.3820 C   0  0  0  0  0  0  0  0  0  0  0  0
   10.0492    7.2928   23.2751 N   0  0  0  0  0  0  0  0  0  0  0  0
    9.2220    7.6950   22.2611 C   0  0  0  0  0  0  0  0  0  0  0  0
    8.4210    6.9704   21.7242 O   0  0  0  0  0  0  0  0  0  0  0  0
    9.4835    8.9984   21.9814 O   0  0  0  0  0  0  0  0  0  0  0  0
    7.6145   11.2220   25.4236 C   0  0  0  0  0  0  0  0  0  0  0  0
    6.6723   10.4844   26.1439 C   0  0  0  0  0  0  0  0  0  0  0  0
    6.0831   11.1232   27.2319 C   0  0  0  0  0  0  0  0  0  0  0  0
    6.4539   12.4189   27.5955 C   0  0  0  0  0  0  0  0  0  0  0  0
    7.4372   13.1199   26.8893 C   0  0  0  0  0  0  0  0  0  0  0  0
    8.0194   12.5082   25.7737 C   0  0  0  0  0  0  0  0  0  0  0  0
   10.9183   14.9677   19.5631 C   0  0  0  0  0  0  0  0  0  0  0  0
   11.7187   14.4670   18.4578 C   0  0  0  0  0  0  0  0  0  0  0  0
    9.9127   15.8532   19.3113 O   0  0  0  0  0  0  0  0  0  0  0  0
  1  2  1  0
  2  3  2  0
  3  4  1  0
  4  5  1  0
  5  6  1  0
  6  7  1  0
  7  8  1  0
  8  9  2  0
  8 10  1  0
 10 11  2  0
 11 12  1  0
 12 13  1  0
 14 13  1  1
 14 15  1  0
 15 16  1  0
 16 17  1  0
 17 18  2  0
 17 19  1  0
 12 20  1  0
 20 21  2  0
 21 22  1  0
 22 23  2  0
 23 24  1  0
 24 25  2  0
  4 26  2  0
 26 27  1  0
 26 28  1  0
 28  2  1  0
 25 10  1  0
 19 14  1  0
 25 20  1  0
M  END
>  <energy_score>  (141) 
-15.778055

>  <fragmenstein_runtime>  (141) 
23.910029

>  <HIPPO Pose ID>  (141) 
503460

>  <fragmenstein_error>  (141) 


>  <alias>  (141) 
KMUFPHPBOXOVEH-UHFFFAOYSA-N-P126-P126-P183-601502

>  <orig_smiles>  (141) 
Cc1nc(CCNC(=O)c2nn(CC3CNC(=O)O3)c3ccccc23)c(C)o1

>  <smiles>  (141) 
Cc1nc(CCNC(=O)c2nn(CC3CNC(=O)O3)c3ccccc23)c(C)o1

>  <inchikey>  (141) 
KMUFPHPBOXOVEH-UHFFFAOYSA-N

>  <HIPPO Compound ID>  (141) 
289865

>  <fragmenstein_mode>  (141) 
expansion

>  <fragmenstein_outcome>  (141) 
too moved

>  <distance_score>  (141) 
1.240093

>  <subsites>  (141) 
None

>  <scratch_subdir>  (141) 
/opt/xchem-fragalysis-2/maxwin/BulkDock/SCRATCH/601502/KMUFPHPBOXOVEH-UHFFFAOYSA-N-P126-P126-P183-601502

>  <inspiration_score>  (141) 
None

>  <name>  (141) 
KMUFPHPBOXOVEH-UHFFFAOYSA-N-P126-P126-P183-601502

>  <ref_mols>  (141) 
A2290a,A3436a

>  <ref_pdb>  (141) 
A0514a

>  <exports>  (141) 
['/opt/xchem-fragalysis-2/maxwin/openbind-hippo/a71ev2a/cycle_01/bulkdock/openbind_a71ev2a_c1_elab_chemspace.sdf', '/opt/xchem-fragalysis-2/maxwin/openbind-hippo/a71ev2a/cycle_01/syndirella/elabs/openbind_a71ev2a_c1_elab_chemspace_filtered.sdf', '/opt/xchem-fragalysis-2/maxwin/openbind-hippo/a71ev2a/cycle_01/syndirella/elabs/ASAP-0031281-001_elabs.sdf']

>  <Energy>  (141) 
63.948204

>  <tags>  (141) 
fragmenstein_placed,openbind_a71ev2a_c1_elabs_filtered,a71ev2a_c1_elab_bulkdock_input

>  <GNINA pK>  (141) 
nan

$$$$
KMUFPHPBOXOVEH-UHFFFAOYSA-N-P183-P126-P183-601502
     RDKit          3D

 28 31  0  0  0  0  0  0  0  0999 V2000
    8.5432   17.9199   20.2812 C   0  0  0  0  0  0  0  0  0  0  0  0
    9.3984   16.7277   20.3309 C   0  0  0  0  0  0  0  0  0  0  0  0
    9.9815   16.1530   21.3616 N   0  0  0  0  0  0  0  0  0  0  0  0
   10.8786   15.2875   20.8030 C   0  0  0  0  0  0  0  0  0  0  0  0
   11.9679   14.6308   21.5634 C   0  0  0  0  0  0  0  0  0  0  0  0
   11.8035   14.6632   23.0695 C   0  0  0  0  0  0  0  0  0  0  0  0
   10.6657   13.9259   23.5167 N   0  0  0  0  0  0  0  0  0  0  0  0
    9.8472   14.0423   24.8083 C   0  0  0  0  0  0  0  0  0  0  0  0
   10.0140   14.7059   25.7514 O   0  0  0  0  0  0  0  0  0  0  0  0
    8.7845   13.0412   24.7229 C   0  0  0  0  0  0  0  0  0  0  0  0
    8.9114   12.0637   23.8129 N   0  0  0  0  0  0  0  0  0  0  0  0
    8.2260   11.0634   24.3562 N   0  0  0  0  0  0  0  0  0  0  0  0
    8.7909    9.7496   24.2711 C   0  0  0  0  0  0  0  0  0  0  0  0
    9.8459    9.5797   23.2015 C   0  0  1  0  0  0  0  0  0  0  0  0
   10.7285    8.4206   23.4946 C   0  0  0  0  0  0  0  0  0  0  0  0
    9.7699    7.4025   23.4207 N   0  0  0  0  0  0  0  0  0  0  0  0
    8.9554    7.7656   22.3879 C   0  0  0  0  0  0  0  0  0  0  0  0
    8.1968    7.0023   21.8409 O   0  0  0  0  0  0  0  0  0  0  0  0
    9.2132    9.0554   22.0716 O   0  0  0  0  0  0  0  0  0  0  0  0
    7.3894   11.4418   25.3691 C   0  0  0  0  0  0  0  0  0  0  0  0
    6.4943   10.7146   26.1598 C   0  0  0  0  0  0  0  0  0  0  0  0
    5.8387   11.4165   27.1675 C   0  0  0  0  0  0  0  0  0  0  0  0
    6.1044   12.7671   27.3927 C   0  0  0  0  0  0  0  0  0  0  0  0
    7.0450   13.4612   26.6244 C   0  0  0  0  0  0  0  0  0  0  0  0
    7.6943   12.7813   25.5866 C   0  0  0  0  0  0  0  0  0  0  0  0
   10.7122   15.3013   19.4429 C   0  0  0  0  0  0  0  0  0  0  0  0
   11.4537   14.7003   18.3489 C   0  0  0  0  0  0  0  0  0  0  0  0
    9.7426   16.1954   19.1244 O   0  0  0  0  0  0  0  0  0  0  0  0
  1  2  1  0
  2  3  2  0
  3  4  1  0
  4  5  1  0
  5  6  1  0
  6  7  1  0
  7  8  1  0
  8  9  2  0
  8 10  1  0
 10 11  2  0
 11 12  1  0
 12 13  1  0
 14 13  1  1
 14 15  1  0
 15 16  1  0
 16 17  1  0
 17 18  2  0
 17 19  1  0
 12 20  1  0
 20 21  2  0
 21 22  1  0
 22 23  2  0
 23 24  1  0
 24 25  2  0
  4 26  2  0
 26 27  1  0
 26 28  1  0
 28  2  1  0
 25 10  1  0
 19 14  1  0
 25 20  1  0
M  END
>  <energy_score>  (142) 
-18.600423

>  <fragmenstein_runtime>  (142) 
8.976398

>  <HIPPO Pose ID>  (142) 
503461

>  <fragmenstein_error>  (142) 


>  <alias>  (142) 
KMUFPHPBOXOVEH-UHFFFAOYSA-N-P183-P126-P183-601502

>  <orig_smiles>  (142) 
Cc1nc(CCNC(=O)c2nn(CC3CNC(=O)O3)c3ccccc23)c(C)o1

>  <smiles>  (142) 
Cc1nc(CCNC(=O)c2nn(CC3CNC(=O)O3)c3ccccc23)c(C)o1

>  <inchikey>  (142) 
KMUFPHPBOXOVEH-UHFFFAOYSA-N

>  <HIPPO Compound ID>  (142) 
289865

>  <fragmenstein_mode>  (142) 
expansion

>  <fragmenstein_outcome>  (142) 
too moved

>  <distance_score>  (142) 
1.333788

>  <subsites>  (142) 
None

>  <scratch_subdir>  (142) 
/opt/xchem-fragalysis-2/maxwin/BulkDock/SCRATCH/601502/KMUFPHPBOXOVEH-UHFFFAOYSA-N-P183-P126-P183-601502

>  <inspiration_score>  (142) 
None

>  <name>  (142) 
KMUFPHPBOXOVEH-UHFFFAOYSA-N-P183-P126-P183-601502

>  <ref_mols>  (142) 
A2290a,A3436a

>  <ref_pdb>  (142) 
A0514a

>  <exports>  (142) 
['/opt/xchem-fragalysis-2/maxwin/openbind-hippo/a71ev2a/cycle_01/syndirella/elabs/openbind_a71ev2a_c1_elab_chemspace_filtered.sdf', '/opt/xchem-fragalysis-2/maxwin/openbind-hippo/a71ev2a/cycle_01/syndirella/elabs/ASAP-0031281-001_elabs.sdf']

>  <Energy>  (142) 
61.125836

>  <tags>  (142) 
fragmenstein_placed,openbind_a71ev2a_c1_elabs_filtered,a71ev2a_c1_elab_bulkdock_input

>  <GNINA pK>  (142) 
nan

$$$$
JSEXGLFPJSGJFL-UHFFFAOYSA-N-P126-P126-P183-601502
     RDKit          3D

 28 31  0  0  0  0  0  0  0  0999 V2000
    7.2314   19.2982   19.6674 C   0  0  0  0  0  0  0  0  0  0  0  0
    8.3182   18.3389   19.7027 C   0  0  0  0  0  0  0  0  0  0  0  0
    8.4977   17.6773   20.8958 C   0  0  0  0  0  0  0  0  0  0  0  0
    9.0353   16.4389   20.8480 C   0  0  0  0  0  0  0  0  0  0  0  0
    9.6933   16.0334   19.7034 C   0  0  0  0  0  0  0  0  0  0  0  0
   10.5377   14.9250   19.9331 C   0  0  0  0  0  0  0  0  0  0  0  0
   10.7441   14.4370   21.1354 N   0  0  0  0  0  0  0  0  0  0  0  0
   12.0388   14.1024   21.0720 C   0  0  0  0  0  0  0  0  0  0  0  0
   12.7915   13.7966   22.2714 C   0  0  0  0  0  0  0  0  0  0  0  0
   12.0991   14.0865   23.5672 C   0  0  0  0  0  0  0  0  0  0  0  0
   11.0382   13.2130   23.8677 N   0  0  0  0  0  0  0  0  0  0  0  0
    9.8731   13.3691   24.8265 C   0  0  0  0  0  0  0  0  0  0  0  0
    9.6313   14.2119   25.5878 O   0  0  0  0  0  0  0  0  0  0  0  0
    9.0926   12.1439   24.6960 C   0  0  0  0  0  0  0  0  0  0  0  0
    9.5129   11.1507   23.8865 N   0  0  0  0  0  0  0  0  0  0  0  0
    8.7330   10.1164   24.2139 N   0  0  0  0  0  0  0  0  0  0  0  0
    9.0614    8.8166   23.6826 C   0  0  0  0  0  0  0  0  0  0  0  0
    7.7701   10.4367   25.1406 C   0  0  0  0  0  0  0  0  0  0  0  0
    6.7666    9.6986   25.7603 C   0  0  0  0  0  0  0  0  0  0  0  0
    5.9580   10.3391   26.7014 C   0  0  0  0  0  0  0  0  0  0  0  0
    6.1431   11.6837   27.0015 C   0  0  0  0  0  0  0  0  0  0  0  0
    5.0208   12.5125   28.2779 Br  0  0  0  0  0  0  0  0  0  0  0  0
    7.1471   12.4235   26.3860 C   0  0  0  0  0  0  0  0  0  0  0  0
    7.9634   11.7785   25.4427 C   0  0  0  0  0  0  0  0  0  0  0  0
   12.4630   14.1419   19.7744 C   0  0  0  0  0  0  0  0  0  0  0  0
   11.4862   14.6660   19.0089 O   0  0  0  0  0  0  0  0  0  0  0  0
    9.6775   16.7999   18.5553 C   0  0  0  0  0  0  0  0  0  0  0  0
    8.8520   17.8826   18.5216 C   0  0  0  0  0  0  0  0  0  0  0  0
  1  2  1  0
  2  3  2  0
  3  4  1  0
  4  5  2  0
  5  6  1  0
  6  7  2  0
  7  8  1  0
  8  9  1  0
  9 10  1  0
 10 11  1  0
 11 12  1  0
 12 13  2  0
 12 14  1  0
 14 15  2  0
 15 16  1  0
 16 17  1  0
 16 18  1  0
 18 19  2  0
 19 20  1  0
 20 21  2  0
 21 22  1  0
 21 23  1  0
 23 24  2  0
  8 25  2  0
 25 26  1  0
  5 27  1  0
 27 28  2  0
 28  2  1  0
 26  6  1  0
 24 14  1  0
 24 18  1  0
M  END
>  <energy_score>  (143) 
23.394723

>  <fragmenstein_runtime>  (143) 
6.515777

>  <HIPPO Pose ID>  (143) 
503462

>  <fragmenstein_error>  (143) 


>  <alias>  (143) 
JSEXGLFPJSGJFL-UHFFFAOYSA-N-P126-P126-P183-601502

>  <orig_smiles>  (143) 
Cc1ccc(-c2nc(CCNC(=O)c3nn(C)c4ccc(Br)cc34)co2)cc1

>  <smiles>  (143) 
Cc1ccc(-c2nc(CCNC(=O)c3nn(C)c4ccc(Br)cc34)co2)cc1

>  <inchikey>  (143) 
JSEXGLFPJSGJFL-UHFFFAOYSA-N

>  <HIPPO Compound ID>  (143) 
289866

>  <fragmenstein_mode>  (143) 
expansion

>  <fragmenstein_outcome>  (143) 
too moved

>  <distance_score>  (143) 
1.486183

>  <subsites>  (143) 
None

>  <scratch_subdir>  (143) 
/opt/xchem-fragalysis-2/maxwin/BulkDock/SCRATCH/601502/JSEXGLFPJSGJFL-UHFFFAOYSA-N-P126-P126-P183-601502

>  <inspiration_score>  (143) 
None

>  <name>  (143) 
JSEXGLFPJSGJFL-UHFFFAOYSA-N-P126-P126-P183-601502

>  <ref_mols>  (143) 
A2290a,A3436a

>  <ref_pdb>  (143) 
A0514a

>  <exports>  (143) 
['/opt/xchem-fragalysis-2/maxwin/openbind-hippo/a71ev2a/cycle_01/bulkdock/openbind_a71ev2a_c1_elab_chemspace.sdf', '/opt/xchem-fragalysis-2/maxwin/openbind-hippo/a71ev2a/cycle_01/syndirella/elabs/ASAP-0031281-001_elabs.sdf']

>  <Energy>  (143) 
135.903939

>  <tags>  (143) 
fragmenstein_placed,a71ev2a_c1_elab_bulkdock_input

>  <GNINA pK>  (143) 
nan

$$$$
JSEXGLFPJSGJFL-UHFFFAOYSA-N-P183-P126-P183-601502
     RDKit          3D

 28 31  0  0  0  0  0  0  0  0999 V2000
    7.9867   19.3726   19.8246 C   0  0  0  0  0  0  0  0  0  0  0  0
    8.3770   17.9841   20.0771 C   0  0  0  0  0  0  0  0  0  0  0  0
    8.3008   17.3248   21.2703 C   0  0  0  0  0  0  0  0  0  0  0  0
    8.6602   16.0009   21.3637 C   0  0  0  0  0  0  0  0  0  0  0  0
    9.3082   15.4431   20.2824 C   0  0  0  0  0  0  0  0  0  0  0  0
   10.2860   14.4642   20.5221 C   0  0  0  0  0  0  0  0  0  0  0  0
   10.5931   14.0614   21.7198 N   0  0  0  0  0  0  0  0  0  0  0  0
   11.9317   14.2032   21.7058 C   0  0  0  0  0  0  0  0  0  0  0  0
   12.6454   14.1465   22.9714 C   0  0  0  0  0  0  0  0  0  0  0  0
   11.8247   14.4587   24.2008 C   0  0  0  0  0  0  0  0  0  0  0  0
   10.7605   13.5431   24.3206 N   0  0  0  0  0  0  0  0  0  0  0  0
    9.3876   13.7053   24.9325 C   0  0  0  0  0  0  0  0  0  0  0  0
    8.9220   14.5955   25.5117 O   0  0  0  0  0  0  0  0  0  0  0  0
    8.7438   12.4113   24.7309 C   0  0  0  0  0  0  0  0  0  0  0  0
    9.3156   11.4647   23.9558 N   0  0  0  0  0  0  0  0  0  0  0  0
    8.6499   10.3447   24.2583 N   0  0  0  0  0  0  0  0  0  0  0  0
    9.1268    9.1009   23.6905 C   0  0  0  0  0  0  0  0  0  0  0  0
    7.6419   10.5623   25.1703 C   0  0  0  0  0  0  0  0  0  0  0  0
    6.7246    9.7257   25.7941 C   0  0  0  0  0  0  0  0  0  0  0  0
    5.8400   10.2725   26.7268 C   0  0  0  0  0  0  0  0  0  0  0  0
    5.8445   11.6339   26.9975 C   0  0  0  0  0  0  0  0  0  0  0  0
    4.6284   12.3352   28.2629 Br  0  0  0  0  0  0  0  0  0  0  0  0
    6.7392   12.4816   26.3587 C   0  0  0  0  0  0  0  0  0  0  0  0
    7.6422   11.9243   25.4383 C   0  0  0  0  0  0  0  0  0  0  0  0
   12.3779   14.3880   20.4229 C   0  0  0  0  0  0  0  0  0  0  0  0
   11.3059   14.4952   19.6198 O   0  0  0  0  0  0  0  0  0  0  0  0
    9.3000   16.0314   19.0568 C   0  0  0  0  0  0  0  0  0  0  0  0
    8.6994   17.2493   18.9874 C   0  0  0  0  0  0  0  0  0  0  0  0
  1  2  1  0
  2  3  2  0
  3  4  1  0
  4  5  2  0
  5  6  1  0
  6  7  2  0
  7  8  1  0
  8  9  1  0
  9 10  1  0
 10 11  1  0
 11 12  1  0
 12 13  2  0
 12 14  1  0
 14 15  2  0
 15 16  1  0
 16 17  1  0
 16 18  1  0
 18 19  2  0
 19 20  1  0
 20 21  2  0
 21 22  1  0
 21 23  1  0
 23 24  2  0
  8 25  2  0
 25 26  1  0
  5 27  1  0
 27 28  2  0
 28  2  1  0
 26  6  1  0
 24 14  1  0
 24 18  1  0
M  END
>  <energy_score>  (144) 
38.86665

>  <fragmenstein_runtime>  (144) 
10.934381

>  <HIPPO Pose ID>  (144) 
503463

>  <fragmenstein_error>  (144) 


>  <alias>  (144) 
JSEXGLFPJSGJFL-UHFFFAOYSA-N-P183-P126-P183-601502

>  <orig_smiles>  (144) 
Cc1ccc(-c2nc(CCNC(=O)c3nn(C)c4ccc(Br)cc34)co2)cc1

>  <smiles>  (144) 
Cc1ccc(-c2nc(CCNC(=O)c3nn(C)c4ccc(Br)cc34)co2)cc1

>  <inchikey>  (144) 
JSEXGLFPJSGJFL-UHFFFAOYSA-N

>  <HIPPO Compound ID>  (144) 
289866

>  <fragmenstein_mode>  (144) 
expansion

>  <fragmenstein_outcome>  (144) 
too moved

>  <distance_score>  (144) 
1.756327

>  <subsites>  (144) 
None

>  <scratch_subdir>  (144) 
/opt/xchem-fragalysis-2/maxwin/BulkDock/SCRATCH/601502/JSEXGLFPJSGJFL-UHFFFAOYSA-N-P183-P126-P183-601502

>  <inspiration_score>  (144) 
None

>  <name>  (144) 
JSEXGLFPJSGJFL-UHFFFAOYSA-N-P183-P126-P183-601502

>  <ref_mols>  (144) 
A2290a,A3436a

>  <ref_pdb>  (144) 
A0514a

>  <exports>  (144) 
['/opt/xchem-fragalysis-2/maxwin/openbind-hippo/a71ev2a/cycle_01/syndirella/elabs/ASAP-0031281-001_elabs.sdf']

>  <Energy>  (144) 
151.375867

>  <tags>  (144) 
fragmenstein_placed,a71ev2a_c1_elab_bulkdock_input

>  <GNINA pK>  (144) 
nan

$$$$
XOCTXXWQJKCNLY-UHFFFAOYSA-N-P126-P126-P183-601502
     RDKit          3D

 28 31  0  0  0  0  0  0  0  0999 V2000
    7.2312   19.2981   19.6678 C   0  0  0  0  0  0  0  0  0  0  0  0
    8.3188   18.3396   19.7034 C   0  0  0  0  0  0  0  0  0  0  0  0
    8.4980   17.6777   20.8964 C   0  0  0  0  0  0  0  0  0  0  0  0
    9.0350   16.4390   20.8483 C   0  0  0  0  0  0  0  0  0  0  0  0
    9.6931   16.0336   19.7037 C   0  0  0  0  0  0  0  0  0  0  0  0
   10.5369   14.9248   19.9328 C   0  0  0  0  0  0  0  0  0  0  0  0
   10.7438   14.4364   21.1348 N   0  0  0  0  0  0  0  0  0  0  0  0
   12.0378   14.1005   21.0710 C   0  0  0  0  0  0  0  0  0  0  0  0
   12.7895   13.7926   22.2701 C   0  0  0  0  0  0  0  0  0  0  0  0
   12.0987   14.0858   23.5657 C   0  0  0  0  0  0  0  0  0  0  0  0
   11.0390   13.2137   23.8740 N   0  0  0  0  0  0  0  0  0  0  0  0
    9.8890   13.3653   24.8519 C   0  0  0  0  0  0  0  0  0  0  0  0
    9.6623   14.2018   25.6248 O   0  0  0  0  0  0  0  0  0  0  0  0
    9.1007   12.1445   24.7224 C   0  0  0  0  0  0  0  0  0  0  0  0
    9.5160   11.1477   23.9143 N   0  0  0  0  0  0  0  0  0  0  0  0
    8.7168   10.1231   24.2300 N   0  0  0  0  0  0  0  0  0  0  0  0
    9.0318    8.8207   23.6975 C   0  0  0  0  0  0  0  0  0  0  0  0
    7.7574   10.4491   25.1584 C   0  0  0  0  0  0  0  0  0  0  0  0
    6.7404    9.7196   25.7702 C   0  0  0  0  0  0  0  0  0  0  0  0
    5.9428   10.3670   26.7149 C   0  0  0  0  0  0  0  0  0  0  0  0
    6.1522   11.7026   27.0226 C   0  0  0  0  0  0  0  0  0  0  0  0
    5.3737   12.2900   27.9414 F   0  0  0  0  0  0  0  0  0  0  0  0
    7.1612   12.4358   26.4159 C   0  0  0  0  0  0  0  0  0  0  0  0
    7.9686   11.7874   25.4690 C   0  0  0  0  0  0  0  0  0  0  0  0
   12.4623   14.1416   19.7736 C   0  0  0  0  0  0  0  0  0  0  0  0
   11.4858   14.6665   19.0084 O   0  0  0  0  0  0  0  0  0  0  0  0
    9.6777   16.8005   18.5558 C   0  0  0  0  0  0  0  0  0  0  0  0
    8.8527   17.8834   18.5223 C   0  0  0  0  0  0  0  0  0  0  0  0
  1  2  1  0
  2  3  2  0
  3  4  1  0
  4  5  2  0
  5  6  1  0
  6  7  2  0
  7  8  1  0
  8  9  1  0
  9 10  1  0
 10 11  1  0
 11 12  1  0
 12 13  2  0
 12 14  1  0
 14 15  2  0
 15 16  1  0
 16 17  1  0
 16 18  1  0
 18 19  2  0
 19 20  1  0
 20 21  2  0
 21 22  1  0
 21 23  1  0
 23 24  2  0
  8 25  2  0
 25 26  1  0
  5 27  1  0
 27 28  2  0
 28  2  1  0
 26  6  1  0
 24 14  1  0
 24 18  1  0
M  END
>  <energy_score>  (145) 
5.796029

>  <fragmenstein_runtime>  (145) 
6.551578

>  <HIPPO Pose ID>  (145) 
503464

>  <fragmenstein_error>  (145) 


>  <alias>  (145) 
XOCTXXWQJKCNLY-UHFFFAOYSA-N-P126-P126-P183-601502

>  <orig_smiles>  (145) 
Cc1ccc(-c2nc(CCNC(=O)c3nn(C)c4ccc(F)cc34)co2)cc1

>  <smiles>  (145) 
Cc1ccc(-c2nc(CCNC(=O)c3nn(C)c4ccc(F)cc34)co2)cc1

>  <inchikey>  (145) 
XOCTXXWQJKCNLY-UHFFFAOYSA-N

>  <HIPPO Compound ID>  (145) 
289867

>  <fragmenstein_mode>  (145) 
expansion

>  <fragmenstein_outcome>  (145) 
too moved

>  <distance_score>  (145) 
1.49209

>  <subsites>  (145) 
None

>  <scratch_subdir>  (145) 
/opt/xchem-fragalysis-2/maxwin/BulkDock/SCRATCH/601502/XOCTXXWQJKCNLY-UHFFFAOYSA-N-P126-P126-P183-601502

>  <inspiration_score>  (145) 
None

>  <name>  (145) 
XOCTXXWQJKCNLY-UHFFFAOYSA-N-P126-P126-P183-601502

>  <ref_mols>  (145) 
A2290a,A3436a

>  <ref_pdb>  (145) 
A0514a

>  <exports>  (145) 
['/opt/xchem-fragalysis-2/maxwin/openbind-hippo/a71ev2a/cycle_01/bulkdock/openbind_a71ev2a_c1_elab_chemspace.sdf', '/opt/xchem-fragalysis-2/maxwin/openbind-hippo/a71ev2a/cycle_01/syndirella/elabs/ASAP-0031281-001_elabs.sdf']

>  <Energy>  (145) 
132.937734

>  <tags>  (145) 
fragmenstein_placed,a71ev2a_c1_elab_bulkdock_input

>  <GNINA pK>  (145) 
nan

$$$$
XOCTXXWQJKCNLY-UHFFFAOYSA-N-P183-P126-P183-601502
     RDKit          3D

 28 31  0  0  0  0  0  0  0  0999 V2000
    7.9871   19.3718   19.8260 C   0  0  0  0  0  0  0  0  0  0  0  0
    8.3773   17.9833   20.0786 C   0  0  0  0  0  0  0  0  0  0  0  0
    8.2999   17.3229   21.2712 C   0  0  0  0  0  0  0  0  0  0  0  0
    8.6595   15.9990   21.3642 C   0  0  0  0  0  0  0  0  0  0  0  0
    9.3083   15.4419   20.2831 C   0  0  0  0  0  0  0  0  0  0  0  0
   10.2858   14.4626   20.5224 C   0  0  0  0  0  0  0  0  0  0  0  0
   10.5927   14.0578   21.7195 N   0  0  0  0  0  0  0  0  0  0  0  0
   11.9311   14.2003   21.7064 C   0  0  0  0  0  0  0  0  0  0  0  0
   12.6435   14.1429   22.9725 C   0  0  0  0  0  0  0  0  0  0  0  0
   11.8219   14.4584   24.2002 C   0  0  0  0  0  0  0  0  0  0  0  0
   10.7564   13.5449   24.3243 N   0  0  0  0  0  0  0  0  0  0  0  0
    9.3874   13.7086   24.9447 C   0  0  0  0  0  0  0  0  0  0  0  0
    8.9271   14.5985   25.5287 O   0  0  0  0  0  0  0  0  0  0  0  0
    8.7386   12.4164   24.7444 C   0  0  0  0  0  0  0  0  0  0  0  0
    9.3082   11.4655   23.9722 N   0  0  0  0  0  0  0  0  0  0  0  0
    8.6330   10.3495   24.2736 N   0  0  0  0  0  0  0  0  0  0  0  0
    9.1033    9.1014   23.7105 C   0  0  0  0  0  0  0  0  0  0  0  0
    7.6264   10.5726   25.1857 C   0  0  0  0  0  0  0  0  0  0  0  0
    6.7029    9.7399   25.8086 C   0  0  0  0  0  0  0  0  0  0  0  0
    5.8233   10.2940   26.7404 C   0  0  0  0  0  0  0  0  0  0  0  0
    5.8397   11.6524   27.0064 C   0  0  0  0  0  0  0  0  0  0  0  0
    4.9854   12.1522   27.9092 F   0  0  0  0  0  0  0  0  0  0  0  0
    6.7348   12.4974   26.3720 C   0  0  0  0  0  0  0  0  0  0  0  0
    7.6345   11.9358   25.4525 C   0  0  0  0  0  0  0  0  0  0  0  0
   12.3779   14.3876   20.4242 C   0  0  0  0  0  0  0  0  0  0  0  0
   11.3063   14.4946   19.6205 O   0  0  0  0  0  0  0  0  0  0  0  0
    9.3007   16.0310   19.0578 C   0  0  0  0  0  0  0  0  0  0  0  0
    8.7004   17.2490   18.9886 C   0  0  0  0  0  0  0  0  0  0  0  0
  1  2  1  0
  2  3  2  0
  3  4  1  0
  4  5  2  0
  5  6  1  0
  6  7  2  0
  7  8  1  0
  8  9  1  0
  9 10  1  0
 10 11  1  0
 11 12  1  0
 12 13  2  0
 12 14  1  0
 14 15  2  0
 15 16  1  0
 16 17  1  0
 16 18  1  0
 18 19  2  0
 19 20  1  0
 20 21  2  0
 21 22  1  0
 21 23  1  0
 23 24  2  0
  8 25  2  0
 25 26  1  0
  5 27  1  0
 27 28  2  0
 28  2  1  0
 26  6  1  0
 24 14  1  0
 24 18  1  0
M  END
>  <energy_score>  (146) 
21.197717

>  <fragmenstein_runtime>  (146) 
6.713348

>  <HIPPO Pose ID>  (146) 
503465

>  <fragmenstein_error>  (146) 


>  <alias>  (146) 
XOCTXXWQJKCNLY-UHFFFAOYSA-N-P183-P126-P183-601502

>  <orig_smiles>  (146) 
Cc1ccc(-c2nc(CCNC(=O)c3nn(C)c4ccc(F)cc34)co2)cc1

>  <smiles>  (146) 
Cc1ccc(-c2nc(CCNC(=O)c3nn(C)c4ccc(F)cc34)co2)cc1

>  <inchikey>  (146) 
XOCTXXWQJKCNLY-UHFFFAOYSA-N

>  <HIPPO Compound ID>  (146) 
289867

>  <fragmenstein_mode>  (146) 
expansion

>  <fragmenstein_outcome>  (146) 
too moved

>  <distance_score>  (146) 
1.762681

>  <subsites>  (146) 
None

>  <scratch_subdir>  (146) 
/opt/xchem-fragalysis-2/maxwin/BulkDock/SCRATCH/601502/XOCTXXWQJKCNLY-UHFFFAOYSA-N-P183-P126-P183-601502

>  <inspiration_score>  (146) 
None

>  <name>  (146) 
XOCTXXWQJKCNLY-UHFFFAOYSA-N-P183-P126-P183-601502

>  <ref_mols>  (146) 
A2290a,A3436a

>  <ref_pdb>  (146) 
A0514a

>  <exports>  (146) 
['/opt/xchem-fragalysis-2/maxwin/openbind-hippo/a71ev2a/cycle_01/syndirella/elabs/ASAP-0031281-001_elabs.sdf']

>  <Energy>  (146) 
148.339422

>  <tags>  (146) 
fragmenstein_placed,a71ev2a_c1_elab_bulkdock_input

>  <GNINA pK>  (146) 
nan

$$$$
PLRDKYGPIMJHFX-UHFFFAOYSA-N-P126-P126-P183-601502
     RDKit          3D

 28 30  0  0  0  0  0  0  0  0999 V2000
    9.7666    8.1048   23.1469 C   0  0  0  0  0  0  0  0  0  0  0  0
    9.4610    9.4662   23.4604 N   0  0  0  0  0  0  0  0  0  0  0  0
   10.1635   10.3895   22.8094 N   0  0  0  0  0  0  0  0  0  0  0  0
    9.5378   11.5197   23.1193 C   0  0  0  0  0  0  0  0  0  0  0  0
    9.9311   12.7823   22.5607 C   0  0  0  0  0  0  0  0  0  0  0  0
    9.0895   13.5696   22.2397 O   0  0  0  0  0  0  0  0  0  0  0  0
   11.3554   12.8921   22.5847 N   0  0  0  0  0  0  0  0  0  0  0  0
   12.2223   14.0190   22.3243 C   0  0  1  0  0  0  0  0  0  0  0  0
   12.3017   14.5035   20.9223 C   0  0  0  0  0  0  0  0  0  0  0  0
   11.0584   15.0977   20.4190 C   0  0  0  0  0  0  0  0  0  0  0  0
   10.5955   15.0873   19.1387 C   0  0  0  0  0  0  0  0  0  0  0  0
    9.5525   15.9482   19.0482 O   0  0  0  0  0  0  0  0  0  0  0  0
    9.4282   16.4369   20.3104 C   0  0  0  0  0  0  0  0  0  0  0  0
   10.3049   15.9641   21.1618 N   0  0  0  0  0  0  0  0  0  0  0  0
   11.6055   14.9723   23.3377 C   0  0  0  0  0  0  0  0  0  0  0  0
   10.7195   14.5430   24.0848 O   0  0  0  0  0  0  0  0  0  0  0  0
   12.1149   16.2439   23.4646 O   0  0  0  0  0  0  0  0  0  0  0  0
   11.7948   17.2546   24.8379 C   0  0  0  0  0  0  0  0  0  0  0  0
   12.9946   17.0667   25.6791 C   0  0  0  0  0  0  0  0  0  0  0  0
   11.4549   19.4403   24.2654 C   0  0  0  0  0  0  0  0  0  0  0  0
   11.1419   15.7680   26.0212 C   0  0  0  0  0  0  0  0  0  0  0  0
    8.6161   11.3578   24.1772 C   0  0  0  0  0  0  0  0  0  0  0  0
    7.8413   12.2145   24.9846 C   0  0  0  0  0  0  0  0  0  0  0  0
    7.0094   11.6476   25.9506 C   0  0  0  0  0  0  0  0  0  0  0  0
    5.9782   12.7660   27.0726 Br  0  0  0  0  0  0  0  0  0  0  0  0
    6.9152   10.2676   26.0875 C   0  0  0  0  0  0  0  0  0  0  0  0
    7.6841    9.4234   25.2809 C   0  0  0  0  0  0  0  0  0  0  0  0
    8.5630    9.9861   24.3597 C   0  0  0  0  0  0  0  0  0  0  0  0
  1  2  1  0
  2  3  1  0
  3  4  2  0
  4  5  1  0
  5  6  2  0
  5  7  1  0
  7  8  1  0
  8  9  1  6
  9 10  1  0
 10 11  2  0
 11 12  1  0
 12 13  1  0
 13 14  2  0
  8 15  1  0
 15 16  2  0
 15 17  1  0
 17 18  1  0
 18 19  1  0
 18 20  1  0
 18 21  1  0
  4 22  1  0
 22 23  2  0
 23 24  1  0
 24 25  1  0
 24 26  2  0
 26 27  1  0
 27 28  2  0
 28  2  1  0
 14 10  1  0
 28 22  1  0
M  END
>  <energy_score>  (147) 
435.983274

>  <fragmenstein_runtime>  (147) 
12.692811

>  <HIPPO Pose ID>  (147) 
503466

>  <fragmenstein_error>  (147) 


>  <alias>  (147) 
PLRDKYGPIMJHFX-UHFFFAOYSA-N-P126-P126-P183-601502

>  <orig_smiles>  (147) 
Cn1nc(C(=O)NC(Cc2cocn2)C(=O)OC(C)(C)C)c2cc(Br)ccc21

>  <smiles>  (147) 
Cn1nc(C(=O)NC(Cc2cocn2)C(=O)OC(C)(C)C)c2cc(Br)ccc21

>  <inchikey>  (147) 
PLRDKYGPIMJHFX-UHFFFAOYSA-N

>  <HIPPO Compound ID>  (147) 
289868

>  <fragmenstein_mode>  (147) 
expansion

>  <fragmenstein_outcome>  (147) 
too contorted

>  <distance_score>  (147) 
0.82607

>  <subsites>  (147) 
None

>  <scratch_subdir>  (147) 
/opt/xchem-fragalysis-2/maxwin/BulkDock/SCRATCH/601502/PLRDKYGPIMJHFX-UHFFFAOYSA-N-P126-P126-P183-601502

>  <inspiration_score>  (147) 
None

>  <name>  (147) 
PLRDKYGPIMJHFX-UHFFFAOYSA-N-P126-P126-P183-601502

>  <ref_mols>  (147) 
A2290a,A3436a

>  <ref_pdb>  (147) 
A0514a

>  <exports>  (147) 
['/opt/xchem-fragalysis-2/maxwin/openbind-hippo/a71ev2a/cycle_01/bulkdock/openbind_a71ev2a_c1_elab_chemspace.sdf', '/opt/xchem-fragalysis-2/maxwin/openbind-hippo/a71ev2a/cycle_01/syndirella/elabs/ASAP-0031281-001_elabs.sdf']

>  <Energy>  (147) 
564.446077

>  <tags>  (147) 
fragmenstein_placed,a71ev2a_c1_elab_bulkdock_input

>  <GNINA pK>  (147) 
nan

$$$$
PLRDKYGPIMJHFX-UHFFFAOYSA-N-P183-P126-P183-601502
     RDKit          3D

 28 30  0  0  0  0  0  0  0  0999 V2000
    8.9083    9.3712   24.0317 C   0  0  0  0  0  0  0  0  0  0  0  0
    8.3785   10.5250   24.7268 N   0  0  0  0  0  0  0  0  0  0  0  0
    8.8910   11.7239   24.4210 N   0  0  0  0  0  0  0  0  0  0  0  0
    8.2140   12.5794   25.2114 C   0  0  0  0  0  0  0  0  0  0  0  0
    8.1139   13.9778   24.8387 C   0  0  0  0  0  0  0  0  0  0  0  0
    8.1985   14.8984   25.5931 O   0  0  0  0  0  0  0  0  0  0  0  0
    7.8143   13.9352   23.4651 N   0  0  0  0  0  0  0  0  0  0  0  0
    7.4245   14.9656   22.5567 C   0  0  1  0  0  0  0  0  0  0  0  0
    8.2724   14.7276   21.3133 C   0  0  0  0  0  0  0  0  0  0  0  0
    8.7975   15.9507   20.7111 C   0  0  0  0  0  0  0  0  0  0  0  0
    9.6709   16.1043   19.6663 C   0  0  0  0  0  0  0  0  0  0  0  0
    9.5959   17.4053   19.2833 O   0  0  0  0  0  0  0  0  0  0  0  0
    8.7203   17.9717   20.1515 C   0  0  0  0  0  0  0  0  0  0  0  0
    8.2774   17.1544   21.0672 N   0  0  0  0  0  0  0  0  0  0  0  0
    5.9027   14.8018   22.4352 C   0  0  0  0  0  0  0  0  0  0  0  0
    5.3453   14.0331   21.6614 O   0  0  0  0  0  0  0  0  0  0  0  0
    5.3123   15.5794   23.3909 O   0  0  0  0  0  0  0  0  0  0  0  0
    3.9331   15.5201   23.8406 C   0  0  0  0  0  0  0  0  0  0  0  0
    3.8089   14.5187   24.9891 C   0  0  0  0  0  0  0  0  0  0  0  0
    3.6458   16.9037   24.4407 C   0  0  0  0  0  0  0  0  0  0  0  0
    2.9311   15.2146   22.7301 C   0  0  0  0  0  0  0  0  0  0  0  0
    7.2977   11.9320   26.0555 C   0  0  0  0  0  0  0  0  0  0  0  0
    6.3409   12.3562   26.9965 C   0  0  0  0  0  0  0  0  0  0  0  0
    5.4710   11.4103   27.5280 C   0  0  0  0  0  0  0  0  0  0  0  0
    4.1907   11.9348   28.8140 Br  0  0  0  0  0  0  0  0  0  0  0  0
    5.5074   10.0938   27.0910 C   0  0  0  0  0  0  0  0  0  0  0  0
    6.4149    9.6940   26.1046 C   0  0  0  0  0  0  0  0  0  0  0  0
    7.3492   10.6087   25.6369 C   0  0  0  0  0  0  0  0  0  0  0  0
  1  2  1  0
  2  3  1  0
  3  4  2  0
  4  5  1  0
  5  6  2  0
  5  7  1  0
  7  8  1  0
  8  9  1  6
  9 10  1  0
 10 11  2  0
 11 12  1  0
 12 13  1  0
 13 14  2  0
  8 15  1  0
 15 16  2  0
 15 17  1  0
 17 18  1  0
 18 19  1  0
 18 20  1  0
 18 21  1  0
  4 22  1  0
 22 23  2  0
 23 24  1  0
 24 25  1  0
 24 26  2  0
 26 27  1  0
 27 28  2  0
 28  2  1  0
 14 10  1  0
 28 22  1  0
M  END
>  <energy_score>  (148) 
-19.321758

>  <fragmenstein_runtime>  (148) 
10.955726

>  <HIPPO Pose ID>  (148) 
503467

>  <fragmenstein_error>  (148) 


>  <alias>  (148) 
PLRDKYGPIMJHFX-UHFFFAOYSA-N-P183-P126-P183-601502

>  <orig_smiles>  (148) 
Cn1nc(C(=O)NC(Cc2cocn2)C(=O)OC(C)(C)C)c2cc(Br)ccc21

>  <smiles>  (148) 
Cn1nc(C(=O)NC(Cc2cocn2)C(=O)OC(C)(C)C)c2cc(Br)ccc21

>  <inchikey>  (148) 
PLRDKYGPIMJHFX-UHFFFAOYSA-N

>  <HIPPO Compound ID>  (148) 
289868

>  <fragmenstein_mode>  (148) 
expansion

>  <fragmenstein_outcome>  (148) 
too moved

>  <distance_score>  (148) 
2.364027

>  <subsites>  (148) 
None

>  <scratch_subdir>  (148) 
/opt/xchem-fragalysis-2/maxwin/BulkDock/SCRATCH/601502/PLRDKYGPIMJHFX-UHFFFAOYSA-N-P183-P126-P183-601502

>  <inspiration_score>  (148) 
None

>  <name>  (148) 
PLRDKYGPIMJHFX-UHFFFAOYSA-N-P183-P126-P183-601502

>  <ref_mols>  (148) 
A2290a,A3436a

>  <ref_pdb>  (148) 
A0514a

>  <exports>  (148) 
['/opt/xchem-fragalysis-2/maxwin/openbind-hippo/a71ev2a/cycle_01/syndirella/elabs/ASAP-0031281-001_elabs.sdf']

>  <Energy>  (148) 
109.141045

>  <tags>  (148) 
fragmenstein_placed,a71ev2a_c1_elab_bulkdock_input

>  <GNINA pK>  (148) 
nan

$$$$
XDQKNPYCLDNQOO-UHFFFAOYSA-N-P126-P126-P183-601502
     RDKit          3D

 28 30  0  0  0  0  0  0  0  0999 V2000
    3.9940   11.4078   29.4944 C   0  0  0  0  0  0  0  0  0  0  0  0
    4.9127   11.4297   28.4018 O   0  0  0  0  0  0  0  0  0  0  0  0
    5.1476   12.6809   27.8923 C   0  0  0  0  0  0  0  0  0  0  0  0
    4.5968   13.6869   28.3303 O   0  0  0  0  0  0  0  0  0  0  0  0
    6.1169   12.6738   26.7844 C   0  0  0  0  0  0  0  0  0  0  0  0
    6.5163   13.8175   26.2055 N   0  0  0  0  0  0  0  0  0  0  0  0
    7.3247   13.4241   25.2036 N   0  0  0  0  0  0  0  0  0  0  0  0
    7.7929   14.4286   24.2736 C   0  0  0  0  0  0  0  0  0  0  0  0
    9.2676   14.1875   24.0357 C   0  0  0  0  0  0  0  0  0  0  0  0
   10.0103   13.9626   24.9101 O   0  0  0  0  0  0  0  0  0  0  0  0
    9.4957   14.2008   22.5029 N   0  0  0  0  0  0  0  0  0  0  0  0
   10.6597   13.8473   21.7249 C   0  0  1  0  0  0  0  0  0  0  0  0
   10.9138   14.6308   20.4344 C   0  0  0  0  0  0  0  0  0  0  0  0
    9.9964   15.7596   20.1205 C   0  0  0  0  0  0  0  0  0  0  0  0
    9.8952   16.4641   18.9421 C   0  0  0  0  0  0  0  0  0  0  0  0
    9.0711   17.5242   19.1347 O   0  0  0  0  0  0  0  0  0  0  0  0
    8.7163   17.4174   20.4407 C   0  0  0  0  0  0  0  0  0  0  0  0
    9.1676   16.3403   21.0458 N   0  0  0  0  0  0  0  0  0  0  0  0
   11.8598   13.9583   22.6278 C   0  0  0  0  0  0  0  0  0  0  0  0
   12.4481   14.9995   22.8682 O   0  0  0  0  0  0  0  0  0  0  0  0
   12.1208   12.7462   23.2017 O   0  0  0  0  0  0  0  0  0  0  0  0
   12.9564   12.8237   24.3414 C   0  0  0  0  0  0  0  0  0  0  0  0
    7.5858   12.0798   25.1714 C   0  0  0  0  0  0  0  0  0  0  0  0
    8.4198   11.2963   24.3609 C   0  0  0  0  0  0  0  0  0  0  0  0
    8.3695    9.9323   24.5348 C   0  0  0  0  0  0  0  0  0  0  0  0
    7.4946    9.4017   25.4610 C   0  0  0  0  0  0  0  0  0  0  0  0
    6.7038   10.1749   26.3061 C   0  0  0  0  0  0  0  0  0  0  0  0
    6.7597   11.5591   26.1614 C   0  0  0  0  0  0  0  0  0  0  0  0
  1  2  1  0
  2  3  1  0
  3  4  2  0
  3  5  1  0
  5  6  2  0
  6  7  1  0
  7  8  1  0
  8  9  1  0
  9 10  2  0
  9 11  1  0
 11 12  1  0
 12 13  1  6
 13 14  1  0
 14 15  2  0
 15 16  1  0
 16 17  1  0
 17 18  2  0
 12 19  1  0
 19 20  2  0
 19 21  1  0
 21 22  1  0
  7 23  1  0
 23 24  2  0
 24 25  1  0
 25 26  2  0
 26 27  1  0
 27 28  2  0
 28  5  1  0
 18 14  1  0
 28 23  1  0
M  END
>  <energy_score>  (149) 
0.812642

>  <fragmenstein_runtime>  (149) 
6.87239

>  <HIPPO Pose ID>  (149) 
503468

>  <fragmenstein_error>  (149) 


>  <alias>  (149) 
XDQKNPYCLDNQOO-UHFFFAOYSA-N-P126-P126-P183-601502

>  <orig_smiles>  (149) 
COC(=O)c1nn(CC(=O)NC(Cc2cocn2)C(=O)OC)c2ccccc12

>  <smiles>  (149) 
COC(=O)c1nn(CC(=O)NC(Cc2cocn2)C(=O)OC)c2ccccc12

>  <inchikey>  (149) 
XDQKNPYCLDNQOO-UHFFFAOYSA-N

>  <HIPPO Compound ID>  (149) 
289869

>  <fragmenstein_mode>  (149) 
expansion

>  <fragmenstein_outcome>  (149) 
too moved

>  <distance_score>  (149) 
2.000696

>  <subsites>  (149) 
None

>  <scratch_subdir>  (149) 
/opt/xchem-fragalysis-2/maxwin/BulkDock/SCRATCH/601502/XDQKNPYCLDNQOO-UHFFFAOYSA-N-P126-P126-P183-601502

>  <inspiration_score>  (149) 
None

>  <name>  (149) 
XDQKNPYCLDNQOO-UHFFFAOYSA-N-P126-P126-P183-601502

>  <ref_mols>  (149) 
A2290a,A3436a

>  <ref_pdb>  (149) 
A0514a

>  <exports>  (149) 
['/opt/xchem-fragalysis-2/maxwin/openbind-hippo/a71ev2a/cycle_01/syndirella/elabs/ASAP-0031281-001_elabs.sdf']

>  <Energy>  (149) 
137.177025

>  <tags>  (149) 
fragmenstein_placed,a71ev2a_c1_elab_bulkdock_input

>  <GNINA pK>  (149) 
nan

$$$$
XDQKNPYCLDNQOO-UHFFFAOYSA-N-P183-P126-P183-601502
     RDKit          3D

 28 30  0  0  0  0  0  0  0  0999 V2000
    5.5376   15.6969   29.6885 C   0  0  0  0  0  0  0  0  0  0  0  0
    5.8707   14.7232   28.6987 O   0  0  0  0  0  0  0  0  0  0  0  0
    6.8472   15.1294   27.8291 C   0  0  0  0  0  0  0  0  0  0  0  0
    7.4269   16.2087   27.9218 O   0  0  0  0  0  0  0  0  0  0  0  0
    7.1452   14.1270   26.7949 C   0  0  0  0  0  0  0  0  0  0  0  0
    7.9096   14.4468   25.7334 N   0  0  0  0  0  0  0  0  0  0  0  0
    7.8731   13.3414   24.9680 N   0  0  0  0  0  0  0  0  0  0  0  0
    8.0237   13.4950   23.5485 C   0  0  0  0  0  0  0  0  0  0  0  0
    9.2603   12.7587   23.1240 C   0  0  0  0  0  0  0  0  0  0  0  0
    9.3045   11.6095   22.9715 O   0  0  0  0  0  0  0  0  0  0  0  0
   10.3409   13.8208   22.9544 N   0  0  0  0  0  0  0  0  0  0  0  0
   11.7315   13.6912   22.6523 C   0  0  1  0  0  0  0  0  0  0  0  0
   12.1543   14.8177   21.7128 C   0  0  0  0  0  0  0  0  0  0  0  0
   11.0574   15.2943   20.8130 C   0  0  0  0  0  0  0  0  0  0  0  0
   10.8353   15.1215   19.4661 C   0  0  0  0  0  0  0  0  0  0  0  0
    9.7526   15.8784   19.1182 O   0  0  0  0  0  0  0  0  0  0  0  0
    9.3662   16.4627   20.2830 C   0  0  0  0  0  0  0  0  0  0  0  0
   10.0658   16.0989   21.3307 N   0  0  0  0  0  0  0  0  0  0  0  0
   12.3785   13.6543   24.0514 C   0  0  0  0  0  0  0  0  0  0  0  0
   12.0667   14.3869   24.9861 O   0  0  0  0  0  0  0  0  0  0  0  0
   13.3119   12.6645   24.1510 O   0  0  0  0  0  0  0  0  0  0  0  0
   14.0425   12.5346   25.3811 C   0  0  0  0  0  0  0  0  0  0  0  0
    7.4181   12.2270   25.6126 C   0  0  0  0  0  0  0  0  0  0  0  0
    7.4256   10.8712   25.2884 C   0  0  0  0  0  0  0  0  0  0  0  0
    6.6171   10.0408   26.0545 C   0  0  0  0  0  0  0  0  0  0  0  0
    5.8951   10.5271   27.1377 C   0  0  0  0  0  0  0  0  0  0  0  0
    5.9880   11.8706   27.5082 C   0  0  0  0  0  0  0  0  0  0  0  0
    6.7675   12.7437   26.7298 C   0  0  0  0  0  0  0  0  0  0  0  0
  1  2  1  0
  2  3  1  0
  3  4  2  0
  3  5  1  0
  5  6  2  0
  6  7  1  0
  7  8  1  0
  8  9  1  0
  9 10  2  0
  9 11  1  0
 11 12  1  0
 12 13  1  6
 13 14  1  0
 14 15  2  0
 15 16  1  0
 16 17  1  0
 17 18  2  0
 12 19  1  0
 19 20  2  0
 19 21  1  0
 21 22  1  0
  7 23  1  0
 23 24  2  0
 24 25  1  0
 25 26  2  0
 26 27  1  0
 27 28  2  0
 28  5  1  0
 18 14  1  0
 28 23  1  0
M  END
>  <energy_score>  (150) 
-10.512858

>  <fragmenstein_runtime>  (150) 
9.062482

>  <HIPPO Pose ID>  (150) 
503469

>  <fragmenstein_error>  (150) 


>  <alias>  (150) 
XDQKNPYCLDNQOO-UHFFFAOYSA-N-P183-P126-P183-601502

>  <orig_smiles>  (150) 
COC(=O)c1nn(CC(=O)NC(Cc2cocn2)C(=O)OC)c2ccccc12

>  <smiles>  (150) 
COC(=O)c1nn(CC(=O)NC(Cc2cocn2)C(=O)OC)c2ccccc12

>  <inchikey>  (150) 
XDQKNPYCLDNQOO-UHFFFAOYSA-N

>  <HIPPO Compound ID>  (150) 
289869

>  <fragmenstein_mode>  (150) 
expansion

>  <fragmenstein_outcome>  (150) 
too moved

>  <distance_score>  (150) 
1.889064

>  <subsites>  (150) 
None

>  <scratch_subdir>  (150) 
/opt/xchem-fragalysis-2/maxwin/BulkDock/SCRATCH/601502/XDQKNPYCLDNQOO-UHFFFAOYSA-N-P183-P126-P183-601502

>  <inspiration_score>  (150) 
None

>  <name>  (150) 
XDQKNPYCLDNQOO-UHFFFAOYSA-N-P183-P126-P183-601502

>  <ref_mols>  (150) 
A2290a,A3436a

>  <ref_pdb>  (150) 
A0514a

>  <exports>  (150) 
['/opt/xchem-fragalysis-2/maxwin/openbind-hippo/a71ev2a/cycle_01/syndirella/elabs/openbind_a71ev2a_c1_elab_chemspace_filtered.sdf', '/opt/xchem-fragalysis-2/maxwin/openbind-hippo/a71ev2a/cycle_01/syndirella/elabs/ASAP-0031281-001_elabs.sdf']

>  <Energy>  (150) 
125.851524

>  <tags>  (150) 
fragmenstein_placed,openbind_a71ev2a_c1_elabs_filtered,a71ev2a_c1_elab_bulkdock_input

>  <GNINA pK>  (150) 
nan

$$$$
QAFFVBNCZZHNSX-UHFFFAOYSA-N-P126-P126-P183-601502
     RDKit          3D

 28 30  0  0  0  0  0  0  0  0999 V2000
    3.5761   12.3969   29.0407 C   0  0  0  0  0  0  0  0  0  0  0  0
    4.4210   11.7617   28.0801 O   0  0  0  0  0  0  0  0  0  0  0  0
    5.5973   12.4076   27.8791 C   0  0  0  0  0  0  0  0  0  0  0  0
    5.9696   13.4252   28.4394 O   0  0  0  0  0  0  0  0  0  0  0  0
    6.3987   11.7005   26.8530 C   0  0  0  0  0  0  0  0  0  0  0  0
    6.2912   10.3221   26.6645 C   0  0  0  0  0  0  0  0  0  0  0  0
    7.0797    9.6651   25.7164 C   0  0  0  0  0  0  0  0  0  0  0  0
    7.9751   10.4140   24.9586 C   0  0  0  0  0  0  0  0  0  0  0  0
    8.0714   11.7894   25.1082 C   0  0  0  0  0  0  0  0  0  0  0  0
    7.2973   12.4486   26.0814 C   0  0  0  0  0  0  0  0  0  0  0  0
    9.0000   12.1839   24.1242 C   0  0  0  0  0  0  0  0  0  0  0  0
    9.4726   13.5369   23.8614 C   0  0  0  0  0  0  0  0  0  0  0  0
    9.3074   14.3979   24.6235 O   0  0  0  0  0  0  0  0  0  0  0  0
   10.2430   13.5148   22.5449 N   0  0  0  0  0  0  0  0  0  0  0  0
   11.0614   14.5240   21.9212 C   0  0  2  0  0  0  0  0  0  0  0  0
   10.7868   14.6487   20.4307 C   0  0  0  0  0  0  0  0  0  0  0  0
    9.9383   15.8143   20.0888 C   0  0  0  0  0  0  0  0  0  0  0  0
    9.8613   16.5226   18.9136 C   0  0  0  0  0  0  0  0  0  0  0  0
    9.0476   17.5925   19.1059 O   0  0  0  0  0  0  0  0  0  0  0  0
    8.6860   17.4860   20.4122 C   0  0  0  0  0  0  0  0  0  0  0  0
    9.1253   16.4049   21.0168 N   0  0  0  0  0  0  0  0  0  0  0  0
   12.5282   14.2424   22.1446 C   0  0  0  0  0  0  0  0  0  0  0  0
   13.4015   15.0125   21.7741 O   0  0  0  0  0  0  0  0  0  0  0  0
   12.8153   13.0504   22.7286 O   0  0  0  0  0  0  0  0  0  0  0  0
   12.6423   12.9909   24.1401 C   0  0  0  0  0  0  0  0  0  0  0  0
    9.4811   11.1386   23.4254 N   0  0  0  0  0  0  0  0  0  0  0  0
    8.8797   10.0787   23.9811 N   0  0  0  0  0  0  0  0  0  0  0  0
    9.2655    8.7610   23.5430 C   0  0  0  0  0  0  0  0  0  0  0  0
  1  2  1  0
  2  3  1  0
  3  4  2  0
  3  5  1  0
  5  6  2  0
  6  7  1  0
  7  8  2  0
  8  9  1  0
  9 10  2  0
  9 11  1  0
 11 12  1  0
 12 13  2  0
 12 14  1  0
 14 15  1  0
 15 16  1  6
 16 17  1  0
 17 18  2  0
 18 19  1  0
 19 20  1  0
 20 21  2  0
 15 22  1  0
 22 23  2  0
 22 24  1  0
 24 25  1  0
 11 26  2  0
 26 27  1  0
 27 28  1  0
 10  5  1  0
 21 17  1  0
 27  8  1  0
M  END
>  <energy_score>  (151) 
-21.106384

>  <fragmenstein_runtime>  (151) 
4.725919

>  <HIPPO Pose ID>  (151) 
503470

>  <fragmenstein_error>  (151) 


>  <alias>  (151) 
QAFFVBNCZZHNSX-UHFFFAOYSA-N-P126-P126-P183-601502

>  <orig_smiles>  (151) 
COC(=O)c1ccc2c(c1)c(C(=O)NC(Cc1cocn1)C(=O)OC)nn2C

>  <smiles>  (151) 
COC(=O)c1ccc2c(c1)c(C(=O)NC(Cc1cocn1)C(=O)OC)nn2C

>  <inchikey>  (151) 
QAFFVBNCZZHNSX-UHFFFAOYSA-N

>  <HIPPO Compound ID>  (151) 
289870

>  <fragmenstein_mode>  (151) 
expansion

>  <fragmenstein_outcome>  (151) 
too moved

>  <distance_score>  (151) 
1.01565

>  <subsites>  (151) 
None

>  <scratch_subdir>  (151) 
/opt/xchem-fragalysis-2/maxwin/BulkDock/SCRATCH/601502/QAFFVBNCZZHNSX-UHFFFAOYSA-N-P126-P126-P183-601502

>  <inspiration_score>  (151) 
None

>  <name>  (151) 
QAFFVBNCZZHNSX-UHFFFAOYSA-N-P126-P126-P183-601502

>  <ref_mols>  (151) 
A2290a,A3436a

>  <ref_pdb>  (151) 
A0514a

>  <exports>  (151) 
['/opt/xchem-fragalysis-2/maxwin/openbind-hippo/a71ev2a/cycle_01/bulkdock/openbind_a71ev2a_c1_elab_chemspace.sdf', '/opt/xchem-fragalysis-2/maxwin/openbind-hippo/a71ev2a/cycle_01/syndirella/elabs/openbind_a71ev2a_c1_elab_chemspace_filtered.sdf', '/opt/xchem-fragalysis-2/maxwin/openbind-hippo/a71ev2a/cycle_01/syndirella/elabs/ASAP-0031281-001_elabs.sdf']

>  <Energy>  (151) 
108.839152

>  <tags>  (151) 
fragmenstein_placed,openbind_a71ev2a_c1_elabs_filtered,a71ev2a_c1_elab_bulkdock_input

>  <GNINA pK>  (151) 
nan

$$$$
QAFFVBNCZZHNSX-UHFFFAOYSA-N-P183-P126-P183-601502
     RDKit          3D

 28 30  0  0  0  0  0  0  0  0999 V2000
    3.0539   12.3006   29.1072 C   0  0  0  0  0  0  0  0  0  0  0  0
    3.9480   11.7003   28.1686 O   0  0  0  0  0  0  0  0  0  0  0  0
    5.0809   12.4181   27.9605 C   0  0  0  0  0  0  0  0  0  0  0  0
    5.3771   13.4717   28.4989 O   0  0  0  0  0  0  0  0  0  0  0  0
    5.9405   11.7406   26.9608 C   0  0  0  0  0  0  0  0  0  0  0  0
    5.8892   10.3627   26.7604 C   0  0  0  0  0  0  0  0  0  0  0  0
    6.7291    9.7383   25.8328 C   0  0  0  0  0  0  0  0  0  0  0  0
    7.6410   10.5068   25.1188 C   0  0  0  0  0  0  0  0  0  0  0  0
    7.6655   11.8840   25.2720 C   0  0  0  0  0  0  0  0  0  0  0  0
    6.8393   12.5155   26.2209 C   0  0  0  0  0  0  0  0  0  0  0  0
    8.6417   12.3087   24.3631 C   0  0  0  0  0  0  0  0  0  0  0  0
    9.2327   13.6283   24.2879 C   0  0  0  0  0  0  0  0  0  0  0  0
    9.0085   14.4665   25.0570 O   0  0  0  0  0  0  0  0  0  0  0  0
   10.2039   13.5944   23.1257 N   0  0  0  0  0  0  0  0  0  0  0  0
   11.1709   14.5332   22.7113 C   0  0  2  0  0  0  0  0  0  0  0  0
   11.5196   14.6223   21.2403 C   0  0  0  0  0  0  0  0  0  0  0  0
   10.5069   15.3683   20.4822 C   0  0  0  0  0  0  0  0  0  0  0  0
   10.3414   15.4627   19.1269 C   0  0  0  0  0  0  0  0  0  0  0  0
    9.4186   16.4319   18.8924 O   0  0  0  0  0  0  0  0  0  0  0  0
    9.0792   16.8848   20.1305 C   0  0  0  0  0  0  0  0  0  0  0  0
    9.6621   16.2455   21.1116 N   0  0  0  0  0  0  0  0  0  0  0  0
   12.3934   14.1145   23.4636 C   0  0  0  0  0  0  0  0  0  0  0  0
   13.4440   14.6671   23.2107 O   0  0  0  0  0  0  0  0  0  0  0  0
   12.2592   13.1570   24.4245 O   0  0  0  0  0  0  0  0  0  0  0  0
   13.4614   12.7187   25.0551 C   0  0  0  0  0  0  0  0  0  0  0  0
    9.1641   11.2932   23.6446 N   0  0  0  0  0  0  0  0  0  0  0  0
    8.6002   10.2053   24.1780 N   0  0  0  0  0  0  0  0  0  0  0  0
    9.0645    8.9153   23.7222 C   0  0  0  0  0  0  0  0  0  0  0  0
  1  2  1  0
  2  3  1  0
  3  4  2  0
  3  5  1  0
  5  6  2  0
  6  7  1  0
  7  8  2  0
  8  9  1  0
  9 10  2  0
  9 11  1  0
 11 12  1  0
 12 13  2  0
 12 14  1  0
 14 15  1  0
 15 16  1  6
 16 17  1  0
 17 18  2  0
 18 19  1  0
 19 20  1  0
 20 21  2  0
 15 22  1  0
 22 23  2  0
 22 24  1  0
 24 25  1  0
 11 26  2  0
 26 27  1  0
 27 28  1  0
 10  5  1  0
 21 17  1  0
 27  8  1  0
M  END
>  <energy_score>  (152) 
-25.060766

>  <fragmenstein_runtime>  (152) 
6.41589

>  <HIPPO Pose ID>  (152) 
503471

>  <fragmenstein_error>  (152) 


>  <alias>  (152) 
QAFFVBNCZZHNSX-UHFFFAOYSA-N-P183-P126-P183-601502

>  <orig_smiles>  (152) 
COC(=O)c1ccc2c(c1)c(C(=O)NC(Cc1cocn1)C(=O)OC)nn2C

>  <smiles>  (152) 
COC(=O)c1ccc2c(c1)c(C(=O)NC(Cc1cocn1)C(=O)OC)nn2C

>  <inchikey>  (152) 
QAFFVBNCZZHNSX-UHFFFAOYSA-N

>  <HIPPO Compound ID>  (152) 
289870

>  <fragmenstein_mode>  (152) 
expansion

>  <fragmenstein_outcome>  (152) 
too moved

>  <distance_score>  (152) 
1.020382

>  <subsites>  (152) 
None

>  <scratch_subdir>  (152) 
/opt/xchem-fragalysis-2/maxwin/BulkDock/SCRATCH/601502/QAFFVBNCZZHNSX-UHFFFAOYSA-N-P183-P126-P183-601502

>  <inspiration_score>  (152) 
None

>  <name>  (152) 
QAFFVBNCZZHNSX-UHFFFAOYSA-N-P183-P126-P183-601502

>  <ref_mols>  (152) 
A2290a,A3436a

>  <ref_pdb>  (152) 
A0514a

>  <exports>  (152) 
['/opt/xchem-fragalysis-2/maxwin/openbind-hippo/a71ev2a/cycle_01/syndirella/elabs/openbind_a71ev2a_c1_elab_chemspace_filtered.sdf', '/opt/xchem-fragalysis-2/maxwin/openbind-hippo/a71ev2a/cycle_01/syndirella/elabs/ASAP-0031281-001_elabs.sdf']

>  <Energy>  (152) 
104.884769

>  <tags>  (152) 
fragmenstein_placed,openbind_a71ev2a_c1_elabs_filtered,a71ev2a_c1_elab_bulkdock_input

>  <GNINA pK>  (152) 
nan

$$$$
PGGHLJVEZRQSGC-UHFFFAOYSA-N-P126-P126-P183-601502
     RDKit          3D

 29 32  0  0  0  0  0  0  0  0999 V2000
    8.9884    8.9675   23.8221 C   0  0  0  0  0  0  0  0  0  0  0  0
    8.6160   10.2464   24.3817 N   0  0  0  0  0  0  0  0  0  0  0  0
    9.3443   11.3178   24.0579 N   0  0  0  0  0  0  0  0  0  0  0  0
    8.9054   12.2890   24.8947 C   0  0  0  0  0  0  0  0  0  0  0  0
    9.6348   13.5615   24.9690 C   0  0  0  0  0  0  0  0  0  0  0  0
    9.4734   14.3999   25.7551 O   0  0  0  0  0  0  0  0  0  0  0  0
   10.6627   13.4338   23.8661 N   0  0  0  0  0  0  0  0  0  0  0  0
   11.6565   14.3407   23.4227 C   0  0  0  0  0  0  0  0  0  0  0  0
   12.0896   14.0990   21.9929 C   0  0  0  0  0  0  0  0  0  0  0  0
   12.4567   12.6564   21.9223 C   0  0  0  0  0  0  0  0  0  0  0  0
   13.2733   14.9902   21.7073 C   0  0  0  0  0  0  0  0  0  0  0  0
   11.1251   14.4693   20.9514 C   0  0  0  0  0  0  0  0  0  0  0  0
   11.3384   14.3631   19.5963 C   0  0  0  0  0  0  0  0  0  0  0  0
   10.4894   15.1837   18.9872 O   0  0  0  0  0  0  0  0  0  0  0  0
    9.8747   15.8071   20.0121 C   0  0  0  0  0  0  0  0  0  0  0  0
    9.2087   16.9924   19.6305 C   0  0  0  0  0  0  0  0  0  0  0  0
    9.0252   17.2693   18.2860 C   0  0  0  0  0  0  0  0  0  0  0  0
    8.1423   18.2419   17.9473 C   0  0  0  0  0  0  0  0  0  0  0  0
    7.5844   19.0185   18.9376 C   0  0  0  0  0  0  0  0  0  0  0  0
    7.9675   18.8978   20.2405 C   0  0  0  0  0  0  0  0  0  0  0  0
    8.7087   17.8230   20.6094 C   0  0  0  0  0  0  0  0  0  0  0  0
   10.1186   15.3365   21.2097 N   0  0  0  0  0  0  0  0  0  0  0  0
    7.8112   11.8617   25.6542 C   0  0  0  0  0  0  0  0  0  0  0  0
    6.9852   12.4597   26.6161 C   0  0  0  0  0  0  0  0  0  0  0  0
    5.9956   11.6786   27.2036 C   0  0  0  0  0  0  0  0  0  0  0  0
    4.8548   12.4443   28.5036 Br  0  0  0  0  0  0  0  0  0  0  0  0
    5.8316   10.3420   26.8550 C   0  0  0  0  0  0  0  0  0  0  0  0
    6.6501    9.7459   25.8946 C   0  0  0  0  0  0  0  0  0  0  0  0
    7.6441   10.5230   25.3097 C   0  0  0  0  0  0  0  0  0  0  0  0
  1  2  1  0
  2  3  1  0
  3  4  2  0
  4  5  1  0
  5  6  2  0
  5  7  1  0
  7  8  1  0
  8  9  1  0
  9 10  1  0
  9 11  1  0
  9 12  1  0
 12 13  2  0
 13 14  1  0
 14 15  1  0
 15 16  1  0
 16 17  2  0
 17 18  1  0
 18 19  2  0
 19 20  1  0
 20 21  2  0
 15 22  2  0
  4 23  1  0
 23 24  2  0
 24 25  1  0
 25 26  1  0
 25 27  2  0
 27 28  1  0
 28 29  2  0
 29  2  1  0
 22 12  1  0
 29 23  1  0
 21 16  1  0
M  END
>  <energy_score>  (153) 
-2.32094

>  <fragmenstein_runtime>  (153) 
7.894731

>  <HIPPO Pose ID>  (153) 
503472

>  <fragmenstein_error>  (153) 


>  <alias>  (153) 
PGGHLJVEZRQSGC-UHFFFAOYSA-N-P126-P126-P183-601502

>  <orig_smiles>  (153) 
Cn1nc(C(=O)NCC(C)(C)c2coc(-c3ccccc3)n2)c2cc(Br)ccc21

>  <smiles>  (153) 
Cn1nc(C(=O)NCC(C)(C)c2coc(-c3ccccc3)n2)c2cc(Br)ccc21

>  <inchikey>  (153) 
PGGHLJVEZRQSGC-UHFFFAOYSA-N

>  <HIPPO Compound ID>  (153) 
289871

>  <fragmenstein_mode>  (153) 
expansion

>  <fragmenstein_outcome>  (153) 
too moved

>  <distance_score>  (153) 
1.275325

>  <subsites>  (153) 
None

>  <scratch_subdir>  (153) 
/opt/xchem-fragalysis-2/maxwin/BulkDock/SCRATCH/601502/PGGHLJVEZRQSGC-UHFFFAOYSA-N-P126-P126-P183-601502

>  <inspiration_score>  (153) 
None

>  <name>  (153) 
PGGHLJVEZRQSGC-UHFFFAOYSA-N-P126-P126-P183-601502

>  <ref_mols>  (153) 
A2290a,A3436a

>  <ref_pdb>  (153) 
A0514a

>  <exports>  (153) 
['/opt/xchem-fragalysis-2/maxwin/openbind-hippo/a71ev2a/cycle_01/syndirella/elabs/openbind_a71ev2a_c1_elab_chemspace_filtered.sdf', '/opt/xchem-fragalysis-2/maxwin/openbind-hippo/a71ev2a/cycle_01/syndirella/elabs/ASAP-0031281-001_elabs.sdf']

>  <Energy>  (153) 
136.59054

>  <tags>  (153) 
fragmenstein_placed,openbind_a71ev2a_c1_elabs_filtered,a71ev2a_c1_elab_bulkdock_input

>  <GNINA pK>  (153) 
nan

$$$$
PGGHLJVEZRQSGC-UHFFFAOYSA-N-P183-P126-P183-601502
     RDKit          3D

 29 32  0  0  0  0  0  0  0  0999 V2000
    8.8805    8.5805   23.7678 C   0  0  0  0  0  0  0  0  0  0  0  0
    8.6341    9.9497   24.1205 N   0  0  0  0  0  0  0  0  0  0  0  0
    9.3605   10.8530   23.4869 N   0  0  0  0  0  0  0  0  0  0  0  0
    9.1876   11.9613   24.2216 C   0  0  0  0  0  0  0  0  0  0  0  0
   10.2036   12.9834   24.1322 C   0  0  0  0  0  0  0  0  0  0  0  0
   10.3500   13.8326   24.9163 O   0  0  0  0  0  0  0  0  0  0  0  0
   11.0315   12.6182   22.8970 N   0  0  0  0  0  0  0  0  0  0  0  0
   12.1425   13.2618   22.3155 C   0  0  0  0  0  0  0  0  0  0  0  0
   11.8606   14.5700   21.6666 C   0  0  0  0  0  0  0  0  0  0  0  0
   13.1412   15.2899   21.3444 C   0  0  0  0  0  0  0  0  0  0  0  0
   11.2458   15.4415   22.7118 C   0  0  0  0  0  0  0  0  0  0  0  0
   11.0117   14.5333   20.4504 C   0  0  0  0  0  0  0  0  0  0  0  0
   11.3572   14.6445   19.1190 C   0  0  0  0  0  0  0  0  0  0  0  0
   10.3936   15.4078   18.5354 O   0  0  0  0  0  0  0  0  0  0  0  0
    9.5293   15.6046   19.5573 C   0  0  0  0  0  0  0  0  0  0  0  0
    8.9797   16.9102   19.6509 C   0  0  0  0  0  0  0  0  0  0  0  0
    8.2741   17.5466   18.6669 C   0  0  0  0  0  0  0  0  0  0  0  0
    7.6772   18.7719   18.8221 C   0  0  0  0  0  0  0  0  0  0  0  0
    7.8669   19.3858   20.0011 C   0  0  0  0  0  0  0  0  0  0  0  0
    8.6140   18.7808   20.9695 C   0  0  0  0  0  0  0  0  0  0  0  0
    9.1217   17.5396   20.8298 C   0  0  0  0  0  0  0  0  0  0  0  0
    9.6929   14.8101   20.5844 N   0  0  0  0  0  0  0  0  0  0  0  0
    8.0786   11.8568   25.0714 C   0  0  0  0  0  0  0  0  0  0  0  0
    7.3730   12.7280   25.9173 C   0  0  0  0  0  0  0  0  0  0  0  0
    6.3616   12.1972   26.7149 C   0  0  0  0  0  0  0  0  0  0  0  0
    5.4007   13.3352   27.8795 Br  0  0  0  0  0  0  0  0  0  0  0  0
    6.0601   10.8394   26.6847 C   0  0  0  0  0  0  0  0  0  0  0  0
    6.7572    9.9690   25.8422 C   0  0  0  0  0  0  0  0  0  0  0  0
    7.7698   10.4985   25.0404 C   0  0  0  0  0  0  0  0  0  0  0  0
  1  2  1  0
  2  3  1  0
  3  4  2  0
  4  5  1  0
  5  6  2  0
  5  7  1  0
  7  8  1  0
  8  9  1  0
  9 10  1  0
  9 11  1  0
  9 12  1  0
 12 13  2  0
 13 14  1  0
 14 15  1  0
 15 16  1  0
 16 17  2  0
 17 18  1  0
 18 19  2  0
 19 20  1  0
 20 21  2  0
 15 22  2  0
  4 23  1  0
 23 24  2  0
 24 25  1  0
 25 26  1  0
 25 27  2  0
 27 28  1  0
 28 29  2  0
 29  2  1  0
 22 12  1  0
 29 23  1  0
 21 16  1  0
M  END
>  <energy_score>  (154) 
32.341282

>  <fragmenstein_runtime>  (154) 
9.735898

>  <HIPPO Pose ID>  (154) 
503473

>  <fragmenstein_error>  (154) 


>  <alias>  (154) 
PGGHLJVEZRQSGC-UHFFFAOYSA-N-P183-P126-P183-601502

>  <orig_smiles>  (154) 
Cn1nc(C(=O)NCC(C)(C)c2coc(-c3ccccc3)n2)c2cc(Br)ccc21

>  <smiles>  (154) 
Cn1nc(C(=O)NCC(C)(C)c2coc(-c3ccccc3)n2)c2cc(Br)ccc21

>  <inchikey>  (154) 
PGGHLJVEZRQSGC-UHFFFAOYSA-N

>  <HIPPO Compound ID>  (154) 
289871

>  <fragmenstein_mode>  (154) 
expansion

>  <fragmenstein_outcome>  (154) 
too contorted

>  <distance_score>  (154) 
0.935273

>  <subsites>  (154) 
None

>  <scratch_subdir>  (154) 
/opt/xchem-fragalysis-2/maxwin/BulkDock/SCRATCH/601502/PGGHLJVEZRQSGC-UHFFFAOYSA-N-P183-P126-P183-601502

>  <inspiration_score>  (154) 
None

>  <name>  (154) 
PGGHLJVEZRQSGC-UHFFFAOYSA-N-P183-P126-P183-601502

>  <ref_mols>  (154) 
A2290a,A3436a

>  <ref_pdb>  (154) 
A0514a

>  <exports>  (154) 
['/opt/xchem-fragalysis-2/maxwin/openbind-hippo/a71ev2a/cycle_01/bulkdock/openbind_a71ev2a_c1_elab_chemspace.sdf', '/opt/xchem-fragalysis-2/maxwin/openbind-hippo/a71ev2a/cycle_01/syndirella/elabs/ASAP-0031281-001_elabs.sdf']

>  <Energy>  (154) 
171.252763

>  <tags>  (154) 
fragmenstein_placed,a71ev2a_c1_elab_bulkdock_input

>  <GNINA pK>  (154) 
nan

$$$$
XJOABTOFZPUHOH-UHFFFAOYSA-N-P126-P126-P183-601502
     RDKit          3D

 29 32  0  0  0  0  0  0  0  0999 V2000
    7.3275   19.2291   19.5111 C   0  0  0  0  0  0  0  0  0  0  0  0
    8.5726   18.8921   18.9620 O   0  0  0  0  0  0  0  0  0  0  0  0
    8.9112   17.6629   19.4072 C   0  0  0  0  0  0  0  0  0  0  0  0
    9.5675   16.8924   18.4859 C   0  0  0  0  0  0  0  0  0  0  0  0
   10.0067   15.6706   18.8947 C   0  0  0  0  0  0  0  0  0  0  0  0
    9.7468   15.2147   20.1760 C   0  0  0  0  0  0  0  0  0  0  0  0
   10.7656   14.4236   20.7611 C   0  0  0  0  0  0  0  0  0  0  0  0
   10.8616   13.9718   21.9869 N   0  0  0  0  0  0  0  0  0  0  0  0
   12.2093   13.9808   22.1786 C   0  0  0  0  0  0  0  0  0  0  0  0
   12.8279   13.4968   23.4003 C   0  0  0  0  0  0  0  0  0  0  0  0
   12.0642   13.8296   24.6542 C   0  0  0  0  0  0  0  0  0  0  0  0
   10.8924   13.0649   24.6989 N   0  0  0  0  0  0  0  0  0  0  0  0
    9.5009   13.4232   25.1721 C   0  0  0  0  0  0  0  0  0  0  0  0
    9.1027   14.3882   25.6774 O   0  0  0  0  0  0  0  0  0  0  0  0
    8.7466   12.2014   24.9350 C   0  0  0  0  0  0  0  0  0  0  0  0
    9.2692   11.2266   24.1589 N   0  0  0  0  0  0  0  0  0  0  0  0
    8.4911   10.1706   24.3946 N   0  0  0  0  0  0  0  0  0  0  0  0
    8.8947    8.8998   23.8427 C   0  0  0  0  0  0  0  0  0  0  0  0
    7.4835   10.4397   25.2891 C   0  0  0  0  0  0  0  0  0  0  0  0
    6.4846    9.6605   25.8576 C   0  0  0  0  0  0  0  0  0  0  0  0
    5.6356   10.2505   26.7958 C   0  0  0  0  0  0  0  0  0  0  0  0
    5.7624   11.5935   27.1297 C   0  0  0  0  0  0  0  0  0  0  0  0
    4.5811   12.3515   28.3970 Br  0  0  0  0  0  0  0  0  0  0  0  0
    6.7454   12.3837   26.5494 C   0  0  0  0  0  0  0  0  0  0  0  0
    7.6049   11.7846   25.6176 C   0  0  0  0  0  0  0  0  0  0  0  0
   12.8433   14.5027   21.0932 C   0  0  0  0  0  0  0  0  0  0  0  0
   11.9479   14.6241   20.1193 O   0  0  0  0  0  0  0  0  0  0  0  0
    8.9087   15.8872   21.0273 C   0  0  0  0  0  0  0  0  0  0  0  0
    8.6178   17.1888   20.6940 C   0  0  0  0  0  0  0  0  0  0  0  0
  1  2  1  0
  2  3  1  0
  3  4  2  0
  4  5  1  0
  5  6  2  0
  6  7  1  0
  7  8  2  0
  8  9  1  0
  9 10  1  0
 10 11  1  0
 11 12  1  0
 12 13  1  0
 13 14  2  0
 13 15  1  0
 15 16  2  0
 16 17  1  0
 17 18  1  0
 17 19  1  0
 19 20  2  0
 20 21  1  0
 21 22  2  0
 22 23  1  0
 22 24  1  0
 24 25  2  0
  9 26  2  0
 26 27  1  0
  6 28  1  0
 28 29  2  0
 29  3  1  0
 27  7  1  0
 25 15  1  0
 25 19  1  0
M  END
>  <energy_score>  (155) 
13.898018

>  <fragmenstein_runtime>  (155) 
9.49528

>  <HIPPO Pose ID>  (155) 
503474

>  <fragmenstein_error>  (155) 


>  <alias>  (155) 
XJOABTOFZPUHOH-UHFFFAOYSA-N-P126-P126-P183-601502

>  <orig_smiles>  (155) 
COc1ccc(-c2nc(CCNC(=O)c3nn(C)c4ccc(Br)cc34)co2)cc1

>  <smiles>  (155) 
COc1ccc(-c2nc(CCNC(=O)c3nn(C)c4ccc(Br)cc34)co2)cc1

>  <inchikey>  (155) 
XJOABTOFZPUHOH-UHFFFAOYSA-N

>  <HIPPO Compound ID>  (155) 
289872

>  <fragmenstein_mode>  (155) 
expansion

>  <fragmenstein_outcome>  (155) 
too moved

>  <distance_score>  (155) 
2.041994

>  <subsites>  (155) 
None

>  <scratch_subdir>  (155) 
/opt/xchem-fragalysis-2/maxwin/BulkDock/SCRATCH/601502/XJOABTOFZPUHOH-UHFFFAOYSA-N-P126-P126-P183-601502

>  <inspiration_score>  (155) 
None

>  <name>  (155) 
XJOABTOFZPUHOH-UHFFFAOYSA-N-P126-P126-P183-601502

>  <ref_mols>  (155) 
A2290a,A3436a

>  <ref_pdb>  (155) 
A0514a

>  <exports>  (155) 
['/opt/xchem-fragalysis-2/maxwin/openbind-hippo/a71ev2a/cycle_01/syndirella/elabs/ASAP-0031281-001_elabs.sdf']

>  <Energy>  (155) 
143.264127

>  <tags>  (155) 
fragmenstein_placed,a71ev2a_c1_elab_bulkdock_input

>  <GNINA pK>  (155) 
nan

$$$$
XJOABTOFZPUHOH-UHFFFAOYSA-N-P183-P126-P183-601502
     RDKit          3D

 29 32  0  0  0  0  0  0  0  0999 V2000
    7.6820   19.3540   19.5487 C   0  0  0  0  0  0  0  0  0  0  0  0
    8.3142   18.9319   20.7533 O   0  0  0  0  0  0  0  0  0  0  0  0
    8.5592   17.6106   20.5866 C   0  0  0  0  0  0  0  0  0  0  0  0
    9.3489   17.2688   19.5141 C   0  0  0  0  0  0  0  0  0  0  0  0
    9.5599   15.9727   19.2076 C   0  0  0  0  0  0  0  0  0  0  0  0
    9.2295   15.0722   20.2033 C   0  0  0  0  0  0  0  0  0  0  0  0
   10.3278   14.2464   20.5483 C   0  0  0  0  0  0  0  0  0  0  0  0
   10.6244   13.9543   21.7827 N   0  0  0  0  0  0  0  0  0  0  0  0
   11.9495   14.1967   21.8115 C   0  0  0  0  0  0  0  0  0  0  0  0
   12.6463   14.1572   23.0860 C   0  0  0  0  0  0  0  0  0  0  0  0
   11.8090   14.4761   24.3009 C   0  0  0  0  0  0  0  0  0  0  0  0
   10.7415   13.5640   24.3978 N   0  0  0  0  0  0  0  0  0  0  0  0
    9.3639   13.7225   24.9995 C   0  0  0  0  0  0  0  0  0  0  0  0
    8.8964   14.6059   25.5873 O   0  0  0  0  0  0  0  0  0  0  0  0
    8.7177   12.4321   24.7724 C   0  0  0  0  0  0  0  0  0  0  0  0
    9.3030   11.4883   24.0031 N   0  0  0  0  0  0  0  0  0  0  0  0
    8.6270   10.3683   24.2818 N   0  0  0  0  0  0  0  0  0  0  0  0
    9.1057    9.1299   23.7044 C   0  0  0  0  0  0  0  0  0  0  0  0
    7.6172   10.5766   25.1927 C   0  0  0  0  0  0  0  0  0  0  0  0
    6.6998    9.7335   25.8072 C   0  0  0  0  0  0  0  0  0  0  0  0
    5.8133   10.2718   26.7429 C   0  0  0  0  0  0  0  0  0  0  0  0
    5.8145   11.6309   27.0241 C   0  0  0  0  0  0  0  0  0  0  0  0
    4.5958   12.3201   28.2938 Br  0  0  0  0  0  0  0  0  0  0  0  0
    6.7076   12.4855   26.3926 C   0  0  0  0  0  0  0  0  0  0  0  0
    7.6132   11.9371   25.4697 C   0  0  0  0  0  0  0  0  0  0  0  0
   12.4215   14.4233   20.5477 C   0  0  0  0  0  0  0  0  0  0  0  0
   11.3900   14.3535   19.6958 O   0  0  0  0  0  0  0  0  0  0  0  0
    8.3139   15.3384   21.2192 C   0  0  0  0  0  0  0  0  0  0  0  0
    7.9750   16.6518   21.4010 C   0  0  0  0  0  0  0  0  0  0  0  0
  1  2  1  0
  2  3  1  0
  3  4  2  0
  4  5  1  0
  5  6  2  0
  6  7  1  0
  7  8  2  0
  8  9  1  0
  9 10  1  0
 10 11  1  0
 11 12  1  0
 12 13  1  0
 13 14  2  0
 13 15  1  0
 15 16  2  0
 16 17  1  0
 17 18  1  0
 17 19  1  0
 19 20  2  0
 20 21  1  0
 21 22  2  0
 22 23  1  0
 22 24  1  0
 24 25  2  0
  9 26  2  0
 26 27  1  0
  6 28  1  0
 28 29  2  0
 29  3  1  0
 27  7  1  0
 25 15  1  0
 25 19  1  0
M  END
>  <energy_score>  (156) 
33.511195

>  <fragmenstein_runtime>  (156) 
14.054067

>  <HIPPO Pose ID>  (156) 
503475

>  <fragmenstein_error>  (156) 


>  <alias>  (156) 
XJOABTOFZPUHOH-UHFFFAOYSA-N-P183-P126-P183-601502

>  <orig_smiles>  (156) 
COc1ccc(-c2nc(CCNC(=O)c3nn(C)c4ccc(Br)cc34)co2)cc1

>  <smiles>  (156) 
COc1ccc(-c2nc(CCNC(=O)c3nn(C)c4ccc(Br)cc34)co2)cc1

>  <inchikey>  (156) 
XJOABTOFZPUHOH-UHFFFAOYSA-N

>  <HIPPO Compound ID>  (156) 
289872

>  <fragmenstein_mode>  (156) 
expansion

>  <fragmenstein_outcome>  (156) 
too moved

>  <distance_score>  (156) 
1.840302

>  <subsites>  (156) 
None

>  <scratch_subdir>  (156) 
/opt/xchem-fragalysis-2/maxwin/BulkDock/SCRATCH/601502/XJOABTOFZPUHOH-UHFFFAOYSA-N-P183-P126-P183-601502

>  <inspiration_score>  (156) 
None

>  <name>  (156) 
XJOABTOFZPUHOH-UHFFFAOYSA-N-P183-P126-P183-601502

>  <ref_mols>  (156) 
A2290a,A3436a

>  <ref_pdb>  (156) 
A0514a

>  <exports>  (156) 
['/opt/xchem-fragalysis-2/maxwin/openbind-hippo/a71ev2a/cycle_01/bulkdock/openbind_a71ev2a_c1_elab_chemspace.sdf', '/opt/xchem-fragalysis-2/maxwin/openbind-hippo/a71ev2a/cycle_01/syndirella/elabs/ASAP-0031281-001_elabs.sdf']

>  <Energy>  (156) 
162.877304

>  <tags>  (156) 
fragmenstein_placed,a71ev2a_c1_elab_bulkdock_input

>  <GNINA pK>  (156) 
nan

$$$$
MGNDDFCFMJSPLL-UHFFFAOYSA-N-P126-P126-P183-601502
     RDKit          3D

 29 32  0  0  0  0  0  0  0  0999 V2000
    9.1878    8.7666   23.5842 C   0  0  0  0  0  0  0  0  0  0  0  0
    8.9275   10.0855   24.1051 N   0  0  0  0  0  0  0  0  0  0  0  0
    9.7516   11.0825   23.7633 N   0  0  0  0  0  0  0  0  0  0  0  0
    9.3611   12.1108   24.5404 C   0  0  0  0  0  0  0  0  0  0  0  0
   10.1633   13.3310   24.6139 C   0  0  0  0  0  0  0  0  0  0  0  0
   10.0039   14.1397   25.4337 O   0  0  0  0  0  0  0  0  0  0  0  0
   11.2196   13.2254   23.5228 N   0  0  0  0  0  0  0  0  0  0  0  0
   12.2444   14.1267   23.1424 C   0  0  0  0  0  0  0  0  0  0  0  0
   12.6183   14.0490   21.6937 C   0  0  0  0  0  0  0  0  0  0  0  0
   11.6205   14.5494   20.7599 C   0  0  0  0  0  0  0  0  0  0  0  0
   11.6627   14.4163   19.3995 C   0  0  0  0  0  0  0  0  0  0  0  0
   10.6484   15.1183   18.8914 O   0  0  0  0  0  0  0  0  0  0  0  0
   10.1030   15.7321   19.9652 C   0  0  0  0  0  0  0  0  0  0  0  0
    9.3113   16.8669   19.6256 C   0  0  0  0  0  0  0  0  0  0  0  0
    9.0720   17.1898   18.2987 C   0  0  0  0  0  0  0  0  0  0  0  0
    8.1931   18.1905   17.9990 C   0  0  0  0  0  0  0  0  0  0  0  0
    7.6604   18.9546   19.0116 C   0  0  0  0  0  0  0  0  0  0  0  0
    8.0636   18.7726   20.3027 C   0  0  0  0  0  0  0  0  0  0  0  0
    8.8125   17.6768   20.6210 C   0  0  0  0  0  0  0  0  0  0  0  0
   10.5776   15.3488   21.1302 N   0  0  0  0  0  0  0  0  0  0  0  0
    8.2053   11.8017   25.2841 C   0  0  0  0  0  0  0  0  0  0  0  0
    7.3814   12.5045   26.1804 C   0  0  0  0  0  0  0  0  0  0  0  0
    6.3279   11.8069   26.7790 C   0  0  0  0  0  0  0  0  0  0  0  0
    5.4340   12.5095   27.6974 N   0  0  0  0  0  0  0  0  0  0  0  0
    4.2761   12.0787   27.8104 O   0  0  0  0  0  0  0  0  0  0  0  0
    5.8997   13.4682   28.3284 O   0  0  0  0  0  0  0  0  0  0  0  0
    6.1162   10.4479   26.5351 C   0  0  0  0  0  0  0  0  0  0  0  0
    6.9434    9.7545   25.6507 C   0  0  0  0  0  0  0  0  0  0  0  0
    7.9716   10.4565   25.0213 C   0  0  0  0  0  0  0  0  0  0  0  0
  1  2  1  0
  2  3  1  0
  3  4  2  0
  4  5  1  0
  5  6  2  0
  5  7  1  0
  7  8  1  0
  8  9  1  0
  9 10  1  0
 10 11  2  0
 11 12  1  0
 12 13  1  0
 13 14  1  0
 14 15  2  0
 15 16  1  0
 16 17  2  0
 17 18  1  0
 18 19  2  0
 13 20  2  0
  4 21  1  0
 21 22  2  0
 22 23  1  0
 23 24  1  0
 24 25  2  0
 24 26  1  0
 23 27  2  0
 27 28  1  0
 28 29  2  0
 29  2  1  0
 20 10  1  0
 29 21  1  0
 19 14  1  0
M  CHG  2  24   1  26  -1
M  END
>  <energy_score>  (157) 
-29.539312

>  <fragmenstein_runtime>  (157) 
8.856153

>  <HIPPO Pose ID>  (157) 
503476

>  <fragmenstein_error>  (157) 


>  <alias>  (157) 
MGNDDFCFMJSPLL-UHFFFAOYSA-N-P126-P126-P183-601502

>  <orig_smiles>  (157) 
Cn1nc(C(=O)NCCc2coc(-c3ccccc3)n2)c2cc([N+](=O)[O-])ccc21

>  <smiles>  (157) 
Cn1nc(C(=O)NCCc2coc(-c3ccccc3)n2)c2cc([N+](=O)[O-])ccc21

>  <inchikey>  (157) 
MGNDDFCFMJSPLL-UHFFFAOYSA-N

>  <HIPPO Compound ID>  (157) 
289873

>  <fragmenstein_mode>  (157) 
expansion

>  <fragmenstein_outcome>  (157) 
acceptable

>  <distance_score>  (157) 
0.994081

>  <subsites>  (157) 
None

>  <scratch_subdir>  (157) 
/opt/xchem-fragalysis-2/maxwin/BulkDock/SCRATCH/601502/MGNDDFCFMJSPLL-UHFFFAOYSA-N-P126-P126-P183-601502

>  <inspiration_score>  (157) 
None

>  <name>  (157) 
MGNDDFCFMJSPLL-UHFFFAOYSA-N-P126-P126-P183-601502

>  <ref_mols>  (157) 
A2290a,A3436a

>  <ref_pdb>  (157) 
A0514a

>  <exports>  (157) 
['/opt/xchem-fragalysis-2/maxwin/openbind-hippo/a71ev2a/cycle_01/syndirella/elabs/openbind_a71ev2a_c1_elab_chemspace_filtered.sdf', '/opt/xchem-fragalysis-2/maxwin/BulkDock/OUTPUTS/a71ev2a_c1_elab_bulkdock_input_1GFT2LV.sdf', '/opt/xchem-fragalysis-2/maxwin/openbind-hippo/a71ev2a/cycle_01/syndirella/elabs/ASAP-0031281-001_elabs.sdf']

>  <Energy>  (157) 
138.453645

>  <tags>  (157) 
fragmenstein_placed,a71ev2a_c1_elab_bulkdock_input,BulkDock Fragalysis export,openbind_a71ev2a_c1_elabs_filtered

>  <GNINA pK>  (157) 
nan

$$$$
MGNDDFCFMJSPLL-UHFFFAOYSA-N-P183-P126-P183-601502
     RDKit          3D

 29 32  0  0  0  0  0  0  0  0999 V2000
    9.3269    8.9308   23.4241 C   0  0  0  0  0  0  0  0  0  0  0  0
    9.0277   10.2481   23.9389 N   0  0  0  0  0  0  0  0  0  0  0  0
    9.7861   11.2700   23.5179 N   0  0  0  0  0  0  0  0  0  0  0  0
    9.3568   12.3248   24.2337 C   0  0  0  0  0  0  0  0  0  0  0  0
   10.0967   13.5899   24.2226 C   0  0  0  0  0  0  0  0  0  0  0  0
    9.9805   14.3813   25.0658 O   0  0  0  0  0  0  0  0  0  0  0  0
   10.9868   13.5857   22.9882 N   0  0  0  0  0  0  0  0  0  0  0  0
   11.9959   14.5053   22.5672 C   0  0  0  0  0  0  0  0  0  0  0  0
   12.3783   14.2740   21.1185 C   0  0  0  0  0  0  0  0  0  0  0  0
   11.3501   14.5923   20.1361 C   0  0  0  0  0  0  0  0  0  0  0  0
   11.4597   14.7999   18.7858 C   0  0  0  0  0  0  0  0  0  0  0  0
   10.3528   15.4763   18.4006 O   0  0  0  0  0  0  0  0  0  0  0  0
    9.6523   15.5719   19.5471 C   0  0  0  0  0  0  0  0  0  0  0  0
    9.0249   16.8240   19.7482 C   0  0  0  0  0  0  0  0  0  0  0  0
    8.3242   17.5433   18.8071 C   0  0  0  0  0  0  0  0  0  0  0  0
    7.7957   18.7802   19.0445 C   0  0  0  0  0  0  0  0  0  0  0  0
    8.1014   19.3264   20.2397 C   0  0  0  0  0  0  0  0  0  0  0  0
    8.8490   18.6345   21.1589 C   0  0  0  0  0  0  0  0  0  0  0  0
    9.2621   17.3684   20.9552 C   0  0  0  0  0  0  0  0  0  0  0  0
   10.0786   14.8202   20.5297 N   0  0  0  0  0  0  0  0  0  0  0  0
    8.2155   12.0036   25.0000 C   0  0  0  0  0  0  0  0  0  0  0  0
    7.3392   12.7244   25.8335 C   0  0  0  0  0  0  0  0  0  0  0  0
    6.3512   12.0121   26.5226 C   0  0  0  0  0  0  0  0  0  0  0  0
    5.4172   12.7311   27.3885 N   0  0  0  0  0  0  0  0  0  0  0  0
    4.3239   12.1933   27.6227 O   0  0  0  0  0  0  0  0  0  0  0  0
    5.7945   13.8087   27.8678 O   0  0  0  0  0  0  0  0  0  0  0  0
    6.2468   10.6236   26.4181 C   0  0  0  0  0  0  0  0  0  0  0  0
    7.1117    9.9149   25.5815 C   0  0  0  0  0  0  0  0  0  0  0  0
    8.0762   10.6256   24.8611 C   0  0  0  0  0  0  0  0  0  0  0  0
  1  2  1  0
  2  3  1  0
  3  4  2  0
  4  5  1  0
  5  6  2  0
  5  7  1  0
  7  8  1  0
  8  9  1  0
  9 10  1  0
 10 11  2  0
 11 12  1  0
 12 13  1  0
 13 14  1  0
 14 15  2  0
 15 16  1  0
 16 17  2  0
 17 18  1  0
 18 19  2  0
 13 20  2  0
  4 21  1  0
 21 22  2  0
 22 23  1  0
 23 24  1  0
 24 25  2  0
 24 26  1  0
 23 27  2  0
 27 28  1  0
 28 29  2  0
 29  2  1  0
 20 10  1  0
 29 21  1  0
 19 14  1  0
M  CHG  2  24   1  26  -1
M  END
>  <energy_score>  (158) 
-6.256166

>  <fragmenstein_runtime>  (158) 
4.963985

>  <HIPPO Pose ID>  (158) 
503477

>  <fragmenstein_error>  (158) 


>  <alias>  (158) 
MGNDDFCFMJSPLL-UHFFFAOYSA-N-P183-P126-P183-601502

>  <orig_smiles>  (158) 
Cn1nc(C(=O)NCCc2coc(-c3ccccc3)n2)c2cc([N+](=O)[O-])ccc21

>  <smiles>  (158) 
Cn1nc(C(=O)NCCc2coc(-c3ccccc3)n2)c2cc([N+](=O)[O-])ccc21

>  <inchikey>  (158) 
MGNDDFCFMJSPLL-UHFFFAOYSA-N

>  <HIPPO Compound ID>  (158) 
289873

>  <fragmenstein_mode>  (158) 
expansion

>  <fragmenstein_outcome>  (158) 
acceptable

>  <distance_score>  (158) 
0.880924

>  <subsites>  (158) 
None

>  <scratch_subdir>  (158) 
/opt/xchem-fragalysis-2/maxwin/BulkDock/SCRATCH/601502/MGNDDFCFMJSPLL-UHFFFAOYSA-N-P183-P126-P183-601502

>  <inspiration_score>  (158) 
None

>  <name>  (158) 
MGNDDFCFMJSPLL-UHFFFAOYSA-N-P183-P126-P183-601502

>  <ref_mols>  (158) 
A2290a,A3436a

>  <ref_pdb>  (158) 
A0514a

>  <exports>  (158) 
['/opt/xchem-fragalysis-2/maxwin/openbind-hippo/a71ev2a/cycle_01/bulkdock/openbind_a71ev2a_c1_elab_chemspace.sdf', '/opt/xchem-fragalysis-2/maxwin/openbind-hippo/a71ev2a/cycle_01/syndirella/elabs/openbind_a71ev2a_c1_elab_chemspace_filtered.sdf', '/opt/xchem-fragalysis-2/maxwin/BulkDock/OUTPUTS/a71ev2a_c1_elab_bulkdock_input_1GFT2LV.sdf', '/opt/xchem-fragalysis-2/maxwin/openbind-hippo/a71ev2a/cycle_01/syndirella/elabs/ASAP-0031281-001_elabs.sdf']

>  <Energy>  (158) 
161.736791

>  <tags>  (158) 
fragmenstein_placed,a71ev2a_c1_elab_bulkdock_input,BulkDock Fragalysis export,openbind_a71ev2a_c1_elabs_filtered

>  <GNINA pK>  (158) 
nan

$$$$
HXJKDVQNPIQOAF-UHFFFAOYSA-N-P126-P126-P183-601502
     RDKit          3D

 29 32  0  0  0  0  0  0  0  0999 V2000
    8.8727    8.5907   23.7642 C   0  0  0  0  0  0  0  0  0  0  0  0
    8.7015    9.9490   24.1867 N   0  0  0  0  0  0  0  0  0  0  0  0
    9.5524   10.8348   23.6965 N   0  0  0  0  0  0  0  0  0  0  0  0
    9.4203   11.8935   24.5157 C   0  0  0  0  0  0  0  0  0  0  0  0
   10.4278   12.9396   24.4268 C   0  0  0  0  0  0  0  0  0  0  0  0
   10.4544   13.8981   25.0866 O   0  0  0  0  0  0  0  0  0  0  0  0
   11.3234   12.5112   23.2606 N   0  0  0  0  0  0  0  0  0  0  0  0
   12.4768   13.1105   22.7268 C   0  0  0  0  0  0  0  0  0  0  0  0
   12.2229   14.1050   21.5992 C   0  0  0  0  0  0  0  0  0  0  0  0
   12.6824   13.7342   20.1862 C   0  0  0  0  0  0  0  0  0  0  0  0
   13.0961   15.2593   22.0013 C   0  0  0  0  0  0  0  0  0  0  0  0
   10.8529   14.6263   21.4845 C   0  0  0  0  0  0  0  0  0  0  0  0
    9.5802   14.1319   21.5674 C   0  0  0  0  0  0  0  0  0  0  0  0
    8.7294   15.0645   21.0737 O   0  0  0  0  0  0  0  0  0  0  0  0
    9.5714   16.0890   20.7954 C   0  0  0  0  0  0  0  0  0  0  0  0
    9.0978   17.1450   20.0137 C   0  0  0  0  0  0  0  0  0  0  0  0
    9.2604   17.0349   18.6411 C   0  0  0  0  0  0  0  0  0  0  0  0
    8.4502   17.8042   17.8678 C   0  0  0  0  0  0  0  0  0  0  0  0
    7.6332   18.7404   18.4827 C   0  0  0  0  0  0  0  0  0  0  0  0
    7.6821   18.9917   19.8296 C   0  0  0  0  0  0  0  0  0  0  0  0
    8.4174   18.1697   20.6228 C   0  0  0  0  0  0  0  0  0  0  0  0
   10.8019   15.9115   21.1160 N   0  0  0  0  0  0  0  0  0  0  0  0
    8.2924   11.7699   25.3449 C   0  0  0  0  0  0  0  0  0  0  0  0
    7.6390   12.5874   26.2782 C   0  0  0  0  0  0  0  0  0  0  0  0
    6.5608   12.0503   26.9720 C   0  0  0  0  0  0  0  0  0  0  0  0
    5.9280   12.8035   27.8815 F   0  0  0  0  0  0  0  0  0  0  0  0
    6.1389   10.7423   26.7692 C   0  0  0  0  0  0  0  0  0  0  0  0
    6.7812    9.9183   25.8434 C   0  0  0  0  0  0  0  0  0  0  0  0
    7.8545   10.4618   25.1341 C   0  0  0  0  0  0  0  0  0  0  0  0
  1  2  1  0
  2  3  1  0
  3  4  2  0
  4  5  1  0
  5  6  2  0
  5  7  1  0
  7  8  1  0
  8  9  1  0
  9 10  1  0
  9 11  1  0
  9 12  1  0
 12 13  2  0
 13 14  1  0
 14 15  1  0
 15 16  1  0
 16 17  2  0
 17 18  1  0
 18 19  2  0
 19 20  1  0
 20 21  2  0
 15 22  2  0
  4 23  1  0
 23 24  2  0
 24 25  1  0
 25 26  1  0
 25 27  2  0
 27 28  1  0
 28 29  2  0
 29  2  1  0
 22 12  1  0
 29 23  1  0
 21 16  1  0
M  END
>  <energy_score>  (159) 
16.160101

>  <fragmenstein_runtime>  (159) 
6.636298

>  <HIPPO Pose ID>  (159) 
503478

>  <fragmenstein_error>  (159) 


>  <alias>  (159) 
HXJKDVQNPIQOAF-UHFFFAOYSA-N-P126-P126-P183-601502

>  <orig_smiles>  (159) 
Cn1nc(C(=O)NCC(C)(C)c2coc(-c3ccccc3)n2)c2cc(F)ccc21

>  <smiles>  (159) 
Cn1nc(C(=O)NCC(C)(C)c2coc(-c3ccccc3)n2)c2cc(F)ccc21

>  <inchikey>  (159) 
HXJKDVQNPIQOAF-UHFFFAOYSA-N

>  <HIPPO Compound ID>  (159) 
289874

>  <fragmenstein_mode>  (159) 
expansion

>  <fragmenstein_outcome>  (159) 
too moved

>  <distance_score>  (159) 
1.14082

>  <subsites>  (159) 
None

>  <scratch_subdir>  (159) 
/opt/xchem-fragalysis-2/maxwin/BulkDock/SCRATCH/601502/HXJKDVQNPIQOAF-UHFFFAOYSA-N-P126-P126-P183-601502

>  <inspiration_score>  (159) 
None

>  <name>  (159) 
HXJKDVQNPIQOAF-UHFFFAOYSA-N-P126-P126-P183-601502

>  <ref_mols>  (159) 
A2290a,A3436a

>  <ref_pdb>  (159) 
A0514a

>  <exports>  (159) 
['/opt/xchem-fragalysis-2/maxwin/openbind-hippo/a71ev2a/cycle_01/syndirella/elabs/ASAP-0031281-001_elabs.sdf']

>  <Energy>  (159) 
153.266434

>  <tags>  (159) 
fragmenstein_placed,a71ev2a_c1_elab_bulkdock_input

>  <GNINA pK>  (159) 
nan

$$$$
HXJKDVQNPIQOAF-UHFFFAOYSA-N-P183-P126-P183-601502
     RDKit          3D

 29 32  0  0  0  0  0  0  0  0999 V2000
    9.1025    8.8022   23.6906 C   0  0  0  0  0  0  0  0  0  0  0  0
    8.6953   10.1186   24.1172 N   0  0  0  0  0  0  0  0  0  0  0  0
    9.3166   11.1647   23.5662 N   0  0  0  0  0  0  0  0  0  0  0  0
    8.8363   12.2168   24.2539 C   0  0  0  0  0  0  0  0  0  0  0  0
    9.4574   13.5186   24.1515 C   0  0  0  0  0  0  0  0  0  0  0  0
    9.1618   14.4040   24.8406 O   0  0  0  0  0  0  0  0  0  0  0  0
   10.5486   13.4083   23.1040 N   0  0  0  0  0  0  0  0  0  0  0  0
   11.5532   14.3038   22.7453 C   0  0  0  0  0  0  0  0  0  0  0  0
   11.9166   14.5728   21.2968 C   0  0  0  0  0  0  0  0  0  0  0  0
   12.6045   13.4886   20.5765 C   0  0  0  0  0  0  0  0  0  0  0  0
   12.8728   15.7087   21.5365 C   0  0  0  0  0  0  0  0  0  0  0  0
   10.8967   14.9226   20.3340 C   0  0  0  0  0  0  0  0  0  0  0  0
   11.0472   15.0654   18.9615 C   0  0  0  0  0  0  0  0  0  0  0  0
    9.9018   15.5693   18.4960 O   0  0  0  0  0  0  0  0  0  0  0  0
    9.2552   15.7911   19.6540 C   0  0  0  0  0  0  0  0  0  0  0  0
    8.7769   17.1060   19.7305 C   0  0  0  0  0  0  0  0  0  0  0  0
    8.1348   17.7134   18.6843 C   0  0  0  0  0  0  0  0  0  0  0  0
    7.5620   18.9324   18.7808 C   0  0  0  0  0  0  0  0  0  0  0  0
    7.7254   19.5335   19.9638 C   0  0  0  0  0  0  0  0  0  0  0  0
    8.5088   18.9851   20.9394 C   0  0  0  0  0  0  0  0  0  0  0  0
    9.0279   17.7588   20.8673 C   0  0  0  0  0  0  0  0  0  0  0  0
    9.6274   15.0979   20.6933 N   0  0  0  0  0  0  0  0  0  0  0  0
    7.8203   11.8625   25.1509 C   0  0  0  0  0  0  0  0  0  0  0  0
    7.0034   12.5610   26.0574 C   0  0  0  0  0  0  0  0  0  0  0  0
    6.1031   11.8364   26.8225 C   0  0  0  0  0  0  0  0  0  0  0  0
    5.3206   12.4721   27.7042 F   0  0  0  0  0  0  0  0  0  0  0  0
    5.9966   10.4623   26.6931 C   0  0  0  0  0  0  0  0  0  0  0  0
    6.8077    9.7697   25.7914 C   0  0  0  0  0  0  0  0  0  0  0  0
    7.7463   10.4814   25.0477 C   0  0  0  0  0  0  0  0  0  0  0  0
  1  2  1  0
  2  3  1  0
  3  4  2  0
  4  5  1  0
  5  6  2  0
  5  7  1  0
  7  8  1  0
  8  9  1  0
  9 10  1  0
  9 11  1  0
  9 12  1  0
 12 13  2  0
 13 14  1  0
 14 15  1  0
 15 16  1  0
 16 17  2  0
 17 18  1  0
 18 19  2  0
 19 20  1  0
 20 21  2  0
 15 22  2  0
  4 23  1  0
 23 24  2  0
 24 25  1  0
 25 26  1  0
 25 27  2  0
 27 28  1  0
 28 29  2  0
 29  2  1  0
 22 12  1  0
 29 23  1  0
 21 16  1  0
M  END
>  <energy_score>  (160) 
47.784371

>  <fragmenstein_runtime>  (160) 
10.260307

>  <HIPPO Pose ID>  (160) 
503479

>  <fragmenstein_error>  (160) 


>  <alias>  (160) 
HXJKDVQNPIQOAF-UHFFFAOYSA-N-P183-P126-P183-601502

>  <orig_smiles>  (160) 
Cn1nc(C(=O)NCC(C)(C)c2coc(-c3ccccc3)n2)c2cc(F)ccc21

>  <smiles>  (160) 
Cn1nc(C(=O)NCC(C)(C)c2coc(-c3ccccc3)n2)c2cc(F)ccc21

>  <inchikey>  (160) 
HXJKDVQNPIQOAF-UHFFFAOYSA-N

>  <HIPPO Compound ID>  (160) 
289874

>  <fragmenstein_mode>  (160) 
expansion

>  <fragmenstein_outcome>  (160) 
too contorted

>  <distance_score>  (160) 
0.972709

>  <subsites>  (160) 
None

>  <scratch_subdir>  (160) 
/opt/xchem-fragalysis-2/maxwin/BulkDock/SCRATCH/601502/HXJKDVQNPIQOAF-UHFFFAOYSA-N-P183-P126-P183-601502

>  <inspiration_score>  (160) 
None

>  <name>  (160) 
HXJKDVQNPIQOAF-UHFFFAOYSA-N-P183-P126-P183-601502

>  <ref_mols>  (160) 
A2290a,A3436a

>  <ref_pdb>  (160) 
A0514a

>  <exports>  (160) 
['/opt/xchem-fragalysis-2/maxwin/openbind-hippo/a71ev2a/cycle_01/bulkdock/openbind_a71ev2a_c1_elab_chemspace.sdf', '/opt/xchem-fragalysis-2/maxwin/openbind-hippo/a71ev2a/cycle_01/syndirella/elabs/ASAP-0031281-001_elabs.sdf']

>  <Energy>  (160) 
184.890705

>  <tags>  (160) 
fragmenstein_placed,a71ev2a_c1_elab_bulkdock_input

>  <GNINA pK>  (160) 
nan

$$$$
CEWRGLWXJYCGHH-UHFFFAOYSA-N-P126-P126-P183-601502
     RDKit          3D

 29 32  0  0  0  0  0  0  0  0999 V2000
    4.0485   20.3571   20.2752 C   0  0  0  0  0  0  0  0  0  0  0  0
    5.8421   19.7658   20.4138 O   0  0  0  0  0  0  0  0  0  0  0  0
    7.0052   19.2705   19.8263 C   0  0  0  0  0  0  0  0  0  0  0  0
    7.3623   18.8096   18.5918 C   0  0  0  0  0  0  0  0  0  0  0  0
    8.4217   17.8368   18.4204 C   0  0  0  0  0  0  0  0  0  0  0  0
    9.0497   17.2865   19.5323 C   0  0  0  0  0  0  0  0  0  0  0  0
    9.8644   16.0985   19.6822 C   0  0  0  0  0  0  0  0  0  0  0  0
   10.3673   15.5725   20.7926 N   0  0  0  0  0  0  0  0  0  0  0  0
   11.3510   14.7314   20.3367 C   0  0  0  0  0  0  0  0  0  0  0  0
   12.4391   14.2188   21.1901 C   0  0  0  0  0  0  0  0  0  0  0  0
   12.2008   14.3142   22.6771 C   0  0  0  0  0  0  0  0  0  0  0  0
   11.2848   13.3348   23.1701 N   0  0  0  0  0  0  0  0  0  0  0  0
   10.4531   13.3321   24.3187 C   0  0  0  0  0  0  0  0  0  0  0  0
   10.3582   14.1152   25.2179 O   0  0  0  0  0  0  0  0  0  0  0  0
    9.6608   12.0913   24.3152 C   0  0  0  0  0  0  0  0  0  0  0  0
   10.0043   11.0845   23.4908 N   0  0  0  0  0  0  0  0  0  0  0  0
    9.1985   10.0738   23.8402 N   0  0  0  0  0  0  0  0  0  0  0  0
    9.3693    8.8098   23.1641 C   0  0  0  0  0  0  0  0  0  0  0  0
    8.2986   10.4098   24.8237 C   0  0  0  0  0  0  0  0  0  0  0  0
    7.3001    9.6862   25.4820 C   0  0  0  0  0  0  0  0  0  0  0  0
    6.5269   10.3453   26.4399 C   0  0  0  0  0  0  0  0  0  0  0  0
    6.7550   11.6835   26.7259 C   0  0  0  0  0  0  0  0  0  0  0  0
    6.0088   12.2861   27.6613 F   0  0  0  0  0  0  0  0  0  0  0  0
    7.7607   12.4039   26.0867 C   0  0  0  0  0  0  0  0  0  0  0  0
    8.5502   11.7475   25.1233 C   0  0  0  0  0  0  0  0  0  0  0  0
   11.2818   14.6688   18.9703 C   0  0  0  0  0  0  0  0  0  0  0  0
   10.3246   15.5353   18.5627 O   0  0  0  0  0  0  0  0  0  0  0  0
    8.8457   17.9490   20.6919 C   0  0  0  0  0  0  0  0  0  0  0  0
    7.9695   18.9898   20.7677 C   0  0  0  0  0  0  0  0  0  0  0  0
  1  2  1  0
  2  3  1  0
  3  4  2  0
  4  5  1  0
  5  6  2  0
  6  7  1  0
  7  8  2  0
  8  9  1  0
  9 10  1  0
 10 11  1  0
 11 12  1  0
 12 13  1  0
 13 14  2  0
 13 15  1  0
 15 16  2  0
 16 17  1  0
 17 18  1  0
 17 19  1  0
 19 20  2  0
 20 21  1  0
 21 22  2  0
 22 23  1  0
 22 24  1  0
 24 25  2  0
  9 26  2  0
 26 27  1  0
  6 28  1  0
 28 29  2  0
 29  3  1  0
 27  7  1  0
 25 15  1  0
 25 19  1  0
M  END
>  <energy_score>  (161) 
109.298573

>  <fragmenstein_runtime>  (161) 
10.787479

>  <HIPPO Pose ID>  (161) 
503480

>  <fragmenstein_error>  (161) 


>  <alias>  (161) 
CEWRGLWXJYCGHH-UHFFFAOYSA-N-P126-P126-P183-601502

>  <orig_smiles>  (161) 
COc1ccc(-c2nc(CCNC(=O)c3nn(C)c4ccc(F)cc34)co2)cc1

>  <smiles>  (161) 
COc1ccc(-c2nc(CCNC(=O)c3nn(C)c4ccc(F)cc34)co2)cc1

>  <inchikey>  (161) 
CEWRGLWXJYCGHH-UHFFFAOYSA-N

>  <HIPPO Compound ID>  (161) 
289875

>  <fragmenstein_mode>  (161) 
expansion

>  <fragmenstein_outcome>  (161) 
too contorted

>  <distance_score>  (161) 
0.696853

>  <subsites>  (161) 
None

>  <scratch_subdir>  (161) 
/opt/xchem-fragalysis-2/maxwin/BulkDock/SCRATCH/601502/CEWRGLWXJYCGHH-UHFFFAOYSA-N-P126-P126-P183-601502

>  <inspiration_score>  (161) 
None

>  <name>  (161) 
CEWRGLWXJYCGHH-UHFFFAOYSA-N-P126-P126-P183-601502

>  <ref_mols>  (161) 
A2290a,A3436a

>  <ref_pdb>  (161) 
A0514a

>  <exports>  (161) 
['/opt/xchem-fragalysis-2/maxwin/openbind-hippo/a71ev2a/cycle_01/bulkdock/openbind_a71ev2a_c1_elab_chemspace.sdf', '/opt/xchem-fragalysis-2/maxwin/openbind-hippo/a71ev2a/cycle_01/syndirella/elabs/ASAP-0031281-001_elabs.sdf']

>  <Energy>  (161) 
226.582747

>  <tags>  (161) 
fragmenstein_placed,a71ev2a_c1_elab_bulkdock_input

>  <GNINA pK>  (161) 
nan

$$$$
CEWRGLWXJYCGHH-UHFFFAOYSA-N-P183-P126-P183-601502
     RDKit          3D

 29 32  0  0  0  0  0  0  0  0999 V2000
    7.8384   19.1672   19.4607 C   0  0  0  0  0  0  0  0  0  0  0  0
    8.3333   18.6166   20.6712 O   0  0  0  0  0  0  0  0  0  0  0  0
    8.6220   17.3017   20.4990 C   0  0  0  0  0  0  0  0  0  0  0  0
    9.5419   16.9359   19.5357 C   0  0  0  0  0  0  0  0  0  0  0  0
   10.0186   15.6545   19.4652 C   0  0  0  0  0  0  0  0  0  0  0  0
    9.7052   14.8350   20.5388 C   0  0  0  0  0  0  0  0  0  0  0  0
   10.8194   14.1954   21.1878 C   0  0  0  0  0  0  0  0  0  0  0  0
   10.7823   13.5172   22.3075 N   0  0  0  0  0  0  0  0  0  0  0  0
   11.9597   13.8283   22.9078 C   0  0  0  0  0  0  0  0  0  0  0  0
   12.1809   13.4201   24.2998 C   0  0  0  0  0  0  0  0  0  0  0  0
   11.2068   14.1912   25.1818 C   0  0  0  0  0  0  0  0  0  0  0  0
    9.8587   13.6727   25.2995 N   0  0  0  0  0  0  0  0  0  0  0  0
    9.2461   12.4880   24.7401 C   0  0  0  0  0  0  0  0  0  0  0  0
    9.6736   11.6770   23.9746 O   0  0  0  0  0  0  0  0  0  0  0  0
    7.9059   12.2520   25.3283 C   0  0  0  0  0  0  0  0  0  0  0  0
    7.5731   11.0119   25.7375 N   0  0  0  0  0  0  0  0  0  0  0  0
    6.3912   11.1652   26.3381 N   0  0  0  0  0  0  0  0  0  0  0  0
    5.7377   10.0055   26.8804 C   0  0  0  0  0  0  0  0  0  0  0  0
    5.9570   12.4574   26.4071 C   0  0  0  0  0  0  0  0  0  0  0  0
    4.8272   13.0302   27.0025 C   0  0  0  0  0  0  0  0  0  0  0  0
    4.6469   14.4002   26.8330 C   0  0  0  0  0  0  0  0  0  0  0  0
    5.5518   15.1446   26.0893 C   0  0  0  0  0  0  0  0  0  0  0  0
    5.3406   16.4579   25.9487 F   0  0  0  0  0  0  0  0  0  0  0  0
    6.6767   14.5712   25.4996 C   0  0  0  0  0  0  0  0  0  0  0  0
    6.8932   13.1933   25.6817 C   0  0  0  0  0  0  0  0  0  0  0  0
   12.6639   14.6926   22.1142 C   0  0  0  0  0  0  0  0  0  0  0  0
   12.0048   14.8338   20.9513 O   0  0  0  0  0  0  0  0  0  0  0  0
    8.5933   15.0817   21.3537 C   0  0  0  0  0  0  0  0  0  0  0  0
    8.0589   16.3530   21.3394 C   0  0  0  0  0  0  0  0  0  0  0  0
  1  2  1  0
  2  3  1  0
  3  4  2  0
  4  5  1  0
  5  6  2  0
  6  7  1  0
  7  8  2  0
  8  9  1  0
  9 10  1  0
 10 11  1  0
 11 12  1  0
 12 13  1  0
 13 14  2  0
 13 15  1  0
 15 16  2  0
 16 17  1  0
 17 18  1  0
 17 19  1  0
 19 20  2  0
 20 21  1  0
 21 22  2  0
 22 23  1  0
 22 24  1  0
 24 25  2  0
  9 26  2  0
 26 27  1  0
  6 28  1  0
 28 29  2  0
 29  3  1  0
 27  7  1  0
 25 15  1  0
 25 19  1  0
M  END
>  <energy_score>  (162) 
32.075401

>  <fragmenstein_runtime>  (162) 
13.003988

>  <HIPPO Pose ID>  (162) 
503481

>  <fragmenstein_error>  (162) 


>  <alias>  (162) 
CEWRGLWXJYCGHH-UHFFFAOYSA-N-P183-P126-P183-601502

>  <orig_smiles>  (162) 
COc1ccc(-c2nc(CCNC(=O)c3nn(C)c4ccc(F)cc34)co2)cc1

>  <smiles>  (162) 
COc1ccc(-c2nc(CCNC(=O)c3nn(C)c4ccc(F)cc34)co2)cc1

>  <inchikey>  (162) 
CEWRGLWXJYCGHH-UHFFFAOYSA-N

>  <HIPPO Compound ID>  (162) 
289875

>  <fragmenstein_mode>  (162) 
expansion

>  <fragmenstein_outcome>  (162) 
too moved

>  <distance_score>  (162) 
3.397306

>  <subsites>  (162) 
None

>  <scratch_subdir>  (162) 
/opt/xchem-fragalysis-2/maxwin/BulkDock/SCRATCH/601502/CEWRGLWXJYCGHH-UHFFFAOYSA-N-P183-P126-P183-601502

>  <inspiration_score>  (162) 
None

>  <name>  (162) 
CEWRGLWXJYCGHH-UHFFFAOYSA-N-P183-P126-P183-601502

>  <ref_mols>  (162) 
A2290a,A3436a

>  <ref_pdb>  (162) 
A0514a

>  <exports>  (162) 
['/opt/xchem-fragalysis-2/maxwin/openbind-hippo/a71ev2a/cycle_01/syndirella/elabs/ASAP-0031281-001_elabs.sdf']

>  <Energy>  (162) 
149.359575

>  <tags>  (162) 
fragmenstein_placed,a71ev2a_c1_elab_bulkdock_input

>  <GNINA pK>  (162) 
nan

$$$$
VHOUMAQIVBBOSM-UHFFFAOYSA-N-P126-P126-P183-601502
     RDKit          3D

 29 32  0  0  0  0  0  0  0  0999 V2000
    8.6396   17.3572   20.7067 C   0  0  0  0  0  0  0  0  0  0  0  0
    9.5727   16.2243   20.5875 C   0  0  0  0  0  0  0  0  0  0  0  0
   10.1832   15.5623   21.5489 N   0  0  0  0  0  0  0  0  0  0  0  0
   11.0472   14.7321   20.8895 C   0  0  0  0  0  0  0  0  0  0  0  0
   12.1032   13.9851   21.6100 C   0  0  0  0  0  0  0  0  0  0  0  0
   11.9826   13.9686   23.1296 C   0  0  0  0  0  0  0  0  0  0  0  0
   10.8498   13.3020   23.7255 N   0  0  0  0  0  0  0  0  0  0  0  0
   10.2022   11.9450   23.3976 C   0  0  0  0  0  0  0  0  0  0  0  0
   10.5259   11.1169   22.6476 O   0  0  0  0  0  0  0  0  0  0  0  0
    9.0153   11.7133   24.2607 C   0  0  0  0  0  0  0  0  0  0  0  0
    8.6893   10.4714   24.6573 N   0  0  0  0  0  0  0  0  0  0  0  0
    7.5311   10.6146   25.3377 N   0  0  0  0  0  0  0  0  0  0  0  0
    6.8802    9.3852   25.7627 C   0  0  0  0  0  0  0  0  0  0  0  0
    5.5859    9.3484   26.5900 C   0  0  0  0  0  0  0  0  0  0  0  0
    4.4994    8.6128   26.0552 C   0  0  0  0  0  0  0  0  0  0  0  0
    3.3289    8.3410   26.7732 C   0  0  0  0  0  0  0  0  0  0  0  0
    3.1951    8.8250   28.0601 C   0  0  0  0  0  0  0  0  0  0  0  0
    1.7449    8.5444   28.9357 Cl  0  0  0  0  0  0  0  0  0  0  0  0
    4.2370    9.5344   28.6386 C   0  0  0  0  0  0  0  0  0  0  0  0
    5.4286    9.7654   27.9259 C   0  0  0  0  0  0  0  0  0  0  0  0
    6.6463   10.5787   28.8253 Cl  0  0  0  0  0  0  0  0  0  0  0  0
    7.1633   11.9077   25.5155 C   0  0  0  0  0  0  0  0  0  0  0  0
    6.0812   12.5031   26.1641 C   0  0  0  0  0  0  0  0  0  0  0  0
    5.9607   13.8829   26.1188 C   0  0  0  0  0  0  0  0  0  0  0  0
    6.8485   14.6443   25.3794 C   0  0  0  0  0  0  0  0  0  0  0  0
    7.8925   14.0398   24.6821 C   0  0  0  0  0  0  0  0  0  0  0  0
    8.0869   12.6529   24.7862 C   0  0  0  0  0  0  0  0  0  0  0  0
   10.8352   14.8502   19.5355 C   0  0  0  0  0  0  0  0  0  0  0  0
    9.8759   15.7956   19.3324 O   0  0  0  0  0  0  0  0  0  0  0  0
  1  2  1  0
  2  3  2  0
  3  4  1  0
  4  5  1  0
  5  6  1  0
  6  7  1  0
  7  8  1  0
  8  9  2  0
  8 10  1  0
 10 11  2  0
 11 12  1  0
 12 13  1  0
 13 14  1  0
 14 15  2  0
 15 16  1  0
 16 17  2  0
 17 18  1  0
 17 19  1  0
 19 20  2  0
 20 21  1  0
 12 22  1  0
 22 23  2  0
 23 24  1  0
 24 25  2  0
 25 26  1  0
 26 27  2  0
  4 28  2  0
 28 29  1  0
 29  2  1  0
 27 10  1  0
 20 14  1  0
 27 22  1  0
M  END
>  <energy_score>  (163) 
-11.668992

>  <fragmenstein_runtime>  (163) 
19.962558

>  <HIPPO Pose ID>  (163) 
503482

>  <fragmenstein_error>  (163) 


>  <alias>  (163) 
VHOUMAQIVBBOSM-UHFFFAOYSA-N-P126-P126-P183-601502

>  <orig_smiles>  (163) 
Cc1nc(CCNC(=O)c2nn(Cc3ccc(Cl)cc3Cl)c3ccccc23)co1

>  <smiles>  (163) 
Cc1nc(CCNC(=O)c2nn(Cc3ccc(Cl)cc3Cl)c3ccccc23)co1

>  <inchikey>  (163) 
VHOUMAQIVBBOSM-UHFFFAOYSA-N

>  <HIPPO Compound ID>  (163) 
289876

>  <fragmenstein_mode>  (163) 
expansion

>  <fragmenstein_outcome>  (163) 
too moved

>  <distance_score>  (163) 
1.972129

>  <subsites>  (163) 
None

>  <scratch_subdir>  (163) 
/opt/xchem-fragalysis-2/maxwin/BulkDock/SCRATCH/601502/VHOUMAQIVBBOSM-UHFFFAOYSA-N-P126-P126-P183-601502

>  <inspiration_score>  (163) 
None

>  <name>  (163) 
VHOUMAQIVBBOSM-UHFFFAOYSA-N-P126-P126-P183-601502

>  <ref_mols>  (163) 
A2290a,A3436a

>  <ref_pdb>  (163) 
A0514a

>  <exports>  (163) 
['/opt/xchem-fragalysis-2/maxwin/openbind-hippo/a71ev2a/cycle_01/bulkdock/openbind_a71ev2a_c1_elab_chemspace.sdf', '/opt/xchem-fragalysis-2/maxwin/openbind-hippo/a71ev2a/cycle_01/syndirella/elabs/openbind_a71ev2a_c1_elab_chemspace_filtered.sdf', '/opt/xchem-fragalysis-2/maxwin/openbind-hippo/a71ev2a/cycle_01/syndirella/elabs/ASAP-0031281-001_elabs.sdf']

>  <Energy>  (163) 
121.418532

>  <tags>  (163) 
fragmenstein_placed,openbind_a71ev2a_c1_elabs_filtered,a71ev2a_c1_elab_bulkdock_input

>  <GNINA pK>  (163) 
nan

$$$$
VHOUMAQIVBBOSM-UHFFFAOYSA-N-P183-P126-P183-601502
     RDKit          3D

 29 32  0  0  0  0  0  0  0  0999 V2000
    8.5897   17.6120   20.4112 C   0  0  0  0  0  0  0  0  0  0  0  0
    9.5497   16.5071   20.3960 C   0  0  0  0  0  0  0  0  0  0  0  0
   10.1461   15.9470   21.4220 N   0  0  0  0  0  0  0  0  0  0  0  0
   10.9119   14.9630   20.8681 C   0  0  0  0  0  0  0  0  0  0  0  0
   11.8191   14.1595   21.7098 C   0  0  0  0  0  0  0  0  0  0  0  0
   11.5593   14.2099   23.2124 C   0  0  0  0  0  0  0  0  0  0  0  0
   10.4791   13.4494   23.8165 N   0  0  0  0  0  0  0  0  0  0  0  0
    9.0754   13.0895   23.2711 C   0  0  0  0  0  0  0  0  0  0  0  0
    8.5995   13.2819   22.2244 O   0  0  0  0  0  0  0  0  0  0  0  0
    8.2853   12.5005   24.3678 C   0  0  0  0  0  0  0  0  0  0  0  0
    8.0085   11.1957   24.5978 N   0  0  0  0  0  0  0  0  0  0  0  0
    7.2072   11.2598   25.7085 N   0  0  0  0  0  0  0  0  0  0  0  0
    6.3344   10.1655   26.1207 C   0  0  0  0  0  0  0  0  0  0  0  0
    5.3037   10.4340   27.2658 C   0  0  0  0  0  0  0  0  0  0  0  0
    5.1961    9.4536   28.2760 C   0  0  0  0  0  0  0  0  0  0  0  0
    4.3103    9.5471   29.3570 C   0  0  0  0  0  0  0  0  0  0  0  0
    3.4774   10.6427   29.4684 C   0  0  0  0  0  0  0  0  0  0  0  0
    2.3881   10.7688   30.7888 Cl  0  0  0  0  0  0  0  0  0  0  0  0
    3.5172   11.6282   28.4980 C   0  0  0  0  0  0  0  0  0  0  0  0
    4.4006   11.5270   27.4028 C   0  0  0  0  0  0  0  0  0  0  0  0
    4.2344   12.8489   26.2981 Cl  0  0  0  0  0  0  0  0  0  0  0  0
    7.3517   12.4364   26.3825 C   0  0  0  0  0  0  0  0  0  0  0  0
    7.0480   12.8493   27.6862 C   0  0  0  0  0  0  0  0  0  0  0  0
    7.0831   14.2087   27.9532 C   0  0  0  0  0  0  0  0  0  0  0  0
    7.4278   15.1157   26.9623 C   0  0  0  0  0  0  0  0  0  0  0  0
    7.8203   14.6794   25.7000 C   0  0  0  0  0  0  0  0  0  0  0  0
    7.8220   13.3102   25.4271 C   0  0  0  0  0  0  0  0  0  0  0  0
   10.7482   14.9757   19.5018 C   0  0  0  0  0  0  0  0  0  0  0  0
    9.8578   15.9570   19.1874 O   0  0  0  0  0  0  0  0  0  0  0  0
  1  2  1  0
  2  3  2  0
  3  4  1  0
  4  5  1  0
  5  6  1  0
  6  7  1  0
  7  8  1  0
  8  9  2  0
  8 10  1  0
 10 11  2  0
 11 12  1  0
 12 13  1  0
 13 14  1  0
 14 15  2  0
 15 16  1  0
 16 17  2  0
 17 18  1  0
 17 19  1  0
 19 20  2  0
 20 21  1  0
 12 22  1  0
 22 23  2  0
 23 24  1  0
 24 25  2  0
 25 26  1  0
 26 27  2  0
  4 28  2  0
 28 29  1  0
 29  2  1  0
 27 10  1  0
 20 14  1  0
 27 22  1  0
M  END
>  <energy_score>  (164) 
5.542528

>  <fragmenstein_runtime>  (164) 
11.742787

>  <HIPPO Pose ID>  (164) 
503483

>  <fragmenstein_error>  (164) 


>  <alias>  (164) 
VHOUMAQIVBBOSM-UHFFFAOYSA-N-P183-P126-P183-601502

>  <orig_smiles>  (164) 
Cc1nc(CCNC(=O)c2nn(Cc3ccc(Cl)cc3Cl)c3ccccc23)co1

>  <smiles>  (164) 
Cc1nc(CCNC(=O)c2nn(Cc3ccc(Cl)cc3Cl)c3ccccc23)co1

>  <inchikey>  (164) 
VHOUMAQIVBBOSM-UHFFFAOYSA-N

>  <HIPPO Compound ID>  (164) 
289876

>  <fragmenstein_mode>  (164) 
expansion

>  <fragmenstein_outcome>  (164) 
too moved

>  <distance_score>  (164) 
2.334033

>  <subsites>  (164) 
None

>  <scratch_subdir>  (164) 
/opt/xchem-fragalysis-2/maxwin/BulkDock/SCRATCH/601502/VHOUMAQIVBBOSM-UHFFFAOYSA-N-P183-P126-P183-601502

>  <inspiration_score>  (164) 
None

>  <name>  (164) 
VHOUMAQIVBBOSM-UHFFFAOYSA-N-P183-P126-P183-601502

>  <ref_mols>  (164) 
A2290a,A3436a

>  <ref_pdb>  (164) 
A0514a

>  <exports>  (164) 
['/opt/xchem-fragalysis-2/maxwin/openbind-hippo/a71ev2a/cycle_01/syndirella/elabs/ASAP-0031281-001_elabs.sdf']

>  <Energy>  (164) 
138.630051

>  <tags>  (164) 
fragmenstein_placed,a71ev2a_c1_elab_bulkdock_input

>  <GNINA pK>  (164) 
nan

$$$$
SFWBIRRVELRRCV-UHFFFAOYSA-N-P126-P126-P183-601502
     RDKit          3D

 29 32  0  0  0  0  0  0  0  0999 V2000
   12.5030   14.3649   21.4687 C   0  0  0  0  0  0  0  0  0  0  0  0
   11.0678   14.8422   21.6334 C   0  0  1  0  0  0  0  0  0  0  0  0
   10.3032   14.8363   20.3020 C   0  0  0  0  0  0  0  0  0  0  0  0
    9.6720   16.1410   19.9521 C   0  0  0  0  0  0  0  0  0  0  0  0
    9.6748   16.8319   18.7603 C   0  0  0  0  0  0  0  0  0  0  0  0
    8.9186   17.9544   18.9022 O   0  0  0  0  0  0  0  0  0  0  0  0
    8.5272   17.9114   20.2051 C   0  0  0  0  0  0  0  0  0  0  0  0
    8.9391   16.8532   20.8675 N   0  0  0  0  0  0  0  0  0  0  0  0
   10.4414   14.0244   22.6631 N   0  0  0  0  0  0  0  0  0  0  0  0
    9.1292   14.0606   23.2162 C   0  0  0  0  0  0  0  0  0  0  0  0
    8.1784   14.7177   22.9255 O   0  0  0  0  0  0  0  0  0  0  0  0
    9.0073   13.0469   24.2641 C   0  0  0  0  0  0  0  0  0  0  0  0
    9.9009   12.0378   24.3473 N   0  0  0  0  0  0  0  0  0  0  0  0
    9.0899   11.0411   24.7551 N   0  0  0  0  0  0  0  0  0  0  0  0
    8.8755    9.9755   23.7867 C   0  0  0  0  0  0  0  0  0  0  0  0
    9.5865    8.7374   24.1151 C   0  0  0  0  0  0  0  0  0  0  0  0
    8.9435    7.7013   24.6451 C   0  0  0  0  0  0  0  0  0  0  0  0
    9.6858    6.3004   25.0921 C   0  0  0  0  0  0  0  0  0  0  0  0
   11.0575    6.1049   26.0067 C   0  0  0  0  0  0  0  0  0  0  0  0
   11.7641    6.0054   27.6556 Cl  0  0  0  0  0  0  0  0  0  0  0  0
   11.6168    7.1297   24.5140 C   0  0  0  0  0  0  0  0  0  0  0  0
   10.7922    8.2573   23.7034 C   0  0  0  0  0  0  0  0  0  0  0  0
   10.7426    8.6373   22.0654 Cl  0  0  0  0  0  0  0  0  0  0  0  0
    8.0743   11.5099   25.5706 C   0  0  0  0  0  0  0  0  0  0  0  0
    7.1432   10.8630   26.3919 C   0  0  0  0  0  0  0  0  0  0  0  0
    6.1166   11.6437   26.9278 C   0  0  0  0  0  0  0  0  0  0  0  0
    5.9907   12.9926   26.5955 C   0  0  0  0  0  0  0  0  0  0  0  0
    6.8890   13.6046   25.7128 C   0  0  0  0  0  0  0  0  0  0  0  0
    7.9667   12.8542   25.2145 C   0  0  0  0  0  0  0  0  0  0  0  0
  2  1  1  6
  2  3  1  0
  3  4  1  0
  4  5  2  0
  5  6  1  0
  6  7  1  0
  7  8  2  0
  2  9  1  0
  9 10  1  0
 10 11  2  0
 10 12  1  0
 12 13  2  0
 13 14  1  0
 14 15  1  0
 15 16  1  0
 16 17  2  0
 17 18  1  0
 18 19  2  0
 19 20  1  0
 19 21  1  0
 21 22  2  0
 22 23  1  0
 14 24  1  0
 24 25  2  0
 25 26  1  0
 26 27  2  0
 27 28  1  0
 28 29  2  0
  8  4  1  0
 29 12  1  0
 22 16  1  0
 29 24  1  0
M  END
>  <energy_score>  (165) 
325.960425

>  <fragmenstein_runtime>  (165) 
10.71128

>  <HIPPO Pose ID>  (165) 
503484

>  <fragmenstein_error>  (165) 


>  <alias>  (165) 
SFWBIRRVELRRCV-UHFFFAOYSA-N-P126-P126-P183-601502

>  <orig_smiles>  (165) 
CC(Cc1cocn1)NC(=O)c1nn(Cc2ccc(Cl)cc2Cl)c2ccccc12

>  <smiles>  (165) 
CC(Cc1cocn1)NC(=O)c1nn(Cc2ccc(Cl)cc2Cl)c2ccccc12

>  <inchikey>  (165) 
SFWBIRRVELRRCV-UHFFFAOYSA-N

>  <HIPPO Compound ID>  (165) 
289877

>  <fragmenstein_mode>  (165) 
expansion

>  <fragmenstein_outcome>  (165) 
too moved

>  <distance_score>  (165) 
1.648829

>  <subsites>  (165) 
None

>  <scratch_subdir>  (165) 
/opt/xchem-fragalysis-2/maxwin/BulkDock/SCRATCH/601502/SFWBIRRVELRRCV-UHFFFAOYSA-N-P126-P126-P183-601502

>  <inspiration_score>  (165) 
None

>  <name>  (165) 
SFWBIRRVELRRCV-UHFFFAOYSA-N-P126-P126-P183-601502

>  <ref_mols>  (165) 
A2290a,A3436a

>  <ref_pdb>  (165) 
A0514a

>  <exports>  (165) 
['/opt/xchem-fragalysis-2/maxwin/openbind-hippo/a71ev2a/cycle_01/syndirella/elabs/ASAP-0031281-001_elabs.sdf']

>  <Energy>  (165) 
440.955902

>  <tags>  (165) 
fragmenstein_placed,a71ev2a_c1_elab_bulkdock_input

>  <GNINA pK>  (165) 
nan

$$$$
SFWBIRRVELRRCV-UHFFFAOYSA-N-P183-P126-P183-601502
     RDKit          3D

 29 32  0  0  0  0  0  0  0  0999 V2000
   12.6416   13.7914   23.8849 C   0  0  0  0  0  0  0  0  0  0  0  0
   11.5332   14.4169   23.0639 C   0  0  1  0  0  0  0  0  0  0  0  0
   11.8184   14.4162   21.5635 C   0  0  0  0  0  0  0  0  0  0  0  0
   10.7824   15.1118   20.7572 C   0  0  0  0  0  0  0  0  0  0  0  0
   10.6599   15.2146   19.3906 C   0  0  0  0  0  0  0  0  0  0  0  0
    9.6579   16.0996   19.1228 O   0  0  0  0  0  0  0  0  0  0  0  0
    9.2200   16.4839   20.3526 C   0  0  0  0  0  0  0  0  0  0  0  0
    9.8100   15.8766   21.3527 N   0  0  0  0  0  0  0  0  0  0  0  0
   10.3717   13.6923   23.4659 N   0  0  0  0  0  0  0  0  0  0  0  0
    9.5599   13.8094   24.6101 C   0  0  0  0  0  0  0  0  0  0  0  0
    9.5819   14.5978   25.5067 O   0  0  0  0  0  0  0  0  0  0  0  0
    8.6311   12.6880   24.6703 C   0  0  0  0  0  0  0  0  0  0  0  0
    8.9304   11.5034   24.0873 N   0  0  0  0  0  0  0  0  0  0  0  0
    8.0756   10.6672   24.6749 N   0  0  0  0  0  0  0  0  0  0  0  0
    8.1910    9.2233   24.6869 C   0  0  0  0  0  0  0  0  0  0  0  0
    9.2865    8.2457   24.3144 C   0  0  0  0  0  0  0  0  0  0  0  0
    9.2387    7.0249   25.0961 C   0  0  0  0  0  0  0  0  0  0  0  0
   10.0822    6.3256   26.7173 C   0  0  0  0  0  0  0  0  0  0  0  0
   11.1356    6.2641   26.4494 C   0  0  0  0  0  0  0  0  0  0  0  0
   11.9595    6.2046   28.3117 Cl  0  0  0  0  0  0  0  0  0  0  0  0
   11.4438    7.3826   24.8194 C   0  0  0  0  0  0  0  0  0  0  0  0
   10.5442    8.4202   24.0003 C   0  0  0  0  0  0  0  0  0  0  0  0
   10.3349    8.9201   22.3975 Cl  0  0  0  0  0  0  0  0  0  0  0  0
    7.1760   11.2847   25.5422 C   0  0  0  0  0  0  0  0  0  0  0  0
    6.1676   10.7786   26.3856 C   0  0  0  0  0  0  0  0  0  0  0  0
    5.4687   11.6875   27.1838 C   0  0  0  0  0  0  0  0  0  0  0  0
    5.7642   13.0460   27.1461 C   0  0  0  0  0  0  0  0  0  0  0  0
    6.7798   13.5297   26.3176 C   0  0  0  0  0  0  0  0  0  0  0  0
    7.4926   12.6269   25.5064 C   0  0  0  0  0  0  0  0  0  0  0  0
  2  1  1  1
  2  3  1  0
  3  4  1  0
  4  5  2  0
  5  6  1  0
  6  7  1  0
  7  8  2  0
  2  9  1  0
  9 10  1  0
 10 11  2  0
 10 12  1  0
 12 13  2  0
 13 14  1  0
 14 15  1  0
 15 16  1  0
 16 17  2  0
 17 18  1  0
 18 19  2  0
 19 20  1  0
 19 21  1  0
 21 22  2  0
 22 23  1  0
 14 24  1  0
 24 25  2  0
 25 26  1  0
 26 27  2  0
 27 28  1  0
 28 29  2  0
  8  4  1  0
 29 12  1  0
 22 16  1  0
 29 24  1  0
M  END
>  <energy_score>  (166) 
474.97813

>  <fragmenstein_runtime>  (166) 
14.268494

>  <HIPPO Pose ID>  (166) 
503485

>  <fragmenstein_error>  (166) 


>  <alias>  (166) 
SFWBIRRVELRRCV-UHFFFAOYSA-N-P183-P126-P183-601502

>  <orig_smiles>  (166) 
CC(Cc1cocn1)NC(=O)c1nn(Cc2ccc(Cl)cc2Cl)c2ccccc12

>  <smiles>  (166) 
CC(Cc1cocn1)NC(=O)c1nn(Cc2ccc(Cl)cc2Cl)c2ccccc12

>  <inchikey>  (166) 
SFWBIRRVELRRCV-UHFFFAOYSA-N

>  <HIPPO Compound ID>  (166) 
289877

>  <fragmenstein_mode>  (166) 
expansion

>  <fragmenstein_outcome>  (166) 
too moved

>  <distance_score>  (166) 
1.40412

>  <subsites>  (166) 
None

>  <scratch_subdir>  (166) 
/opt/xchem-fragalysis-2/maxwin/BulkDock/SCRATCH/601502/SFWBIRRVELRRCV-UHFFFAOYSA-N-P183-P126-P183-601502

>  <inspiration_score>  (166) 
None

>  <name>  (166) 
SFWBIRRVELRRCV-UHFFFAOYSA-N-P183-P126-P183-601502

>  <ref_mols>  (166) 
A2290a,A3436a

>  <ref_pdb>  (166) 
A0514a

>  <exports>  (166) 
['/opt/xchem-fragalysis-2/maxwin/openbind-hippo/a71ev2a/cycle_01/bulkdock/openbind_a71ev2a_c1_elab_chemspace.sdf', '/opt/xchem-fragalysis-2/maxwin/openbind-hippo/a71ev2a/cycle_01/syndirella/elabs/ASAP-0031281-001_elabs.sdf']

>  <Energy>  (166) 
589.973607

>  <tags>  (166) 
fragmenstein_placed,a71ev2a_c1_elab_bulkdock_input

>  <GNINA pK>  (166) 
nan

$$$$
ZISRNSWUMNARNW-UHFFFAOYSA-N-P126-P126-P183-601502
     RDKit          3D

 29 32  0  0  0  0  0  0  0  0999 V2000
   11.6879   14.4811   18.6606 C   0  0  0  0  0  0  0  0  0  0  0  0
   10.8339   14.9735   19.7381 C   0  0  0  0  0  0  0  0  0  0  0  0
    9.7651   15.7559   19.4006 O   0  0  0  0  0  0  0  0  0  0  0  0
    9.2623   16.1349   20.6021 C   0  0  0  0  0  0  0  0  0  0  0  0
    9.8322   15.5658   21.6365 N   0  0  0  0  0  0  0  0  0  0  0  0
   10.9298   14.9637   21.1060 C   0  0  0  0  0  0  0  0  0  0  0  0
   12.0397   14.5698   21.9884 C   0  0  0  0  0  0  0  0  0  0  0  0
   11.9828   13.1423   22.4702 C   0  0  0  0  0  0  0  0  0  0  0  0
   10.7438   12.7080   23.0582 N   0  0  0  0  0  0  0  0  0  0  0  0
   10.3128   11.3282   23.5659 C   0  0  0  0  0  0  0  0  0  0  0  0
   10.8601   10.3054   23.5209 O   0  0  0  0  0  0  0  0  0  0  0  0
    9.0372   11.3536   24.3114 C   0  0  0  0  0  0  0  0  0  0  0  0
    8.3917   10.1888   24.4826 N   0  0  0  0  0  0  0  0  0  0  0  0
    7.3456   10.4705   25.2586 N   0  0  0  0  0  0  0  0  0  0  0  0
    6.5532    9.3397   25.7239 C   0  0  0  0  0  0  0  0  0  0  0  0
    5.6773    9.4780   26.9749 C   0  0  0  0  0  0  0  0  0  0  0  0
    6.1482   10.1345   28.1275 C   0  0  0  0  0  0  0  0  0  0  0  0
    5.3939   10.2012   29.3026 C   0  0  0  0  0  0  0  0  0  0  0  0
    4.1538    9.5810   29.3622 C   0  0  0  0  0  0  0  0  0  0  0  0
    3.2299    9.6553   30.8097 Cl  0  0  0  0  0  0  0  0  0  0  0  0
    3.6638    8.8945   28.2601 C   0  0  0  0  0  0  0  0  0  0  0  0
    4.4191    8.8332   27.0811 C   0  0  0  0  0  0  0  0  0  0  0  0
    3.7278    7.8762   25.8061 Cl  0  0  0  0  0  0  0  0  0  0  0  0
    7.2164   11.7941   25.5265 C   0  0  0  0  0  0  0  0  0  0  0  0
    6.2116   12.5133   26.1707 C   0  0  0  0  0  0  0  0  0  0  0  0
    6.4504   13.8481   26.4427 C   0  0  0  0  0  0  0  0  0  0  0  0
    7.6384   14.4471   26.0523 C   0  0  0  0  0  0  0  0  0  0  0  0
    8.6039   13.7386   25.3323 C   0  0  0  0  0  0  0  0  0  0  0  0
    8.3732   12.3876   25.0265 C   0  0  0  0  0  0  0  0  0  0  0  0
  1  2  1  0
  2  3  1  0
  3  4  1  0
  4  5  2  0
  5  6  1  0
  6  7  1  0
  7  8  1  0
  8  9  1  0
  9 10  1  0
 10 11  2  0
 10 12  1  0
 12 13  2  0
 13 14  1  0
 14 15  1  0
 15 16  1  0
 16 17  2  0
 17 18  1  0
 18 19  2  0
 19 20  1  0
 19 21  1  0
 21 22  2  0
 22 23  1  0
 14 24  1  0
 24 25  2  0
 25 26  1  0
 26 27  2  0
 27 28  1  0
 28 29  2  0
  6  2  2  0
 29 12  1  0
 22 16  1  0
 29 24  1  0
M  END
>  <energy_score>  (167) 
12.708383

>  <fragmenstein_runtime>  (167) 
7.389944

>  <HIPPO Pose ID>  (167) 
503486

>  <fragmenstein_error>  (167) 


>  <alias>  (167) 
ZISRNSWUMNARNW-UHFFFAOYSA-N-P126-P126-P183-601502

>  <orig_smiles>  (167) 
Cc1ocnc1CCNC(=O)c1nn(Cc2ccc(Cl)cc2Cl)c2ccccc12

>  <smiles>  (167) 
Cc1ocnc1CCNC(=O)c1nn(Cc2ccc(Cl)cc2Cl)c2ccccc12

>  <inchikey>  (167) 
ZISRNSWUMNARNW-UHFFFAOYSA-N

>  <HIPPO Compound ID>  (167) 
289878

>  <fragmenstein_mode>  (167) 
expansion

>  <fragmenstein_outcome>  (167) 
too moved

>  <distance_score>  (167) 
2.002879

>  <subsites>  (167) 
None

>  <scratch_subdir>  (167) 
/opt/xchem-fragalysis-2/maxwin/BulkDock/SCRATCH/601502/ZISRNSWUMNARNW-UHFFFAOYSA-N-P126-P126-P183-601502

>  <inspiration_score>  (167) 
None

>  <name>  (167) 
ZISRNSWUMNARNW-UHFFFAOYSA-N-P126-P126-P183-601502

>  <ref_mols>  (167) 
A2290a,A3436a

>  <ref_pdb>  (167) 
A0514a

>  <exports>  (167) 
['/opt/xchem-fragalysis-2/maxwin/openbind-hippo/a71ev2a/cycle_01/bulkdock/openbind_a71ev2a_c1_elab_chemspace.sdf', '/opt/xchem-fragalysis-2/maxwin/openbind-hippo/a71ev2a/cycle_01/syndirella/elabs/ASAP-0031281-001_elabs.sdf']

>  <Energy>  (167) 
121.795302

>  <tags>  (167) 
fragmenstein_placed,a71ev2a_c1_elab_bulkdock_input

>  <GNINA pK>  (167) 
nan

$$$$
ZISRNSWUMNARNW-UHFFFAOYSA-N-P183-P126-P183-601502
     RDKit          3D

 29 32  0  0  0  0  0  0  0  0999 V2000
   11.3357   14.8891   18.6581 C   0  0  0  0  0  0  0  0  0  0  0  0
   10.5128   15.2029   19.8298 C   0  0  0  0  0  0  0  0  0  0  0  0
    9.5408   16.1468   19.6787 O   0  0  0  0  0  0  0  0  0  0  0  0
    8.9399   16.1883   20.8973 C   0  0  0  0  0  0  0  0  0  0  0  0
    9.4090   15.3310   21.7782 N   0  0  0  0  0  0  0  0  0  0  0  0
   10.4747   14.7532   21.1297 C   0  0  0  0  0  0  0  0  0  0  0  0
   11.3792   13.7917   21.8120 C   0  0  0  0  0  0  0  0  0  0  0  0
   11.8963   14.3020   23.1421 C   0  0  0  0  0  0  0  0  0  0  0  0
   10.8700   14.2344   24.1419 N   0  0  0  0  0  0  0  0  0  0  0  0
   10.8829   14.5823   25.5107 C   0  0  0  0  0  0  0  0  0  0  0  0
   11.7749   14.9507   26.2154 O   0  0  0  0  0  0  0  0  0  0  0  0
    9.5013   14.5001   26.0270 C   0  0  0  0  0  0  0  0  0  0  0  0
    8.5258   13.9426   25.2877 N   0  0  0  0  0  0  0  0  0  0  0  0
    7.4233   14.0492   26.0542 N   0  0  0  0  0  0  0  0  0  0  0  0
    6.1626   13.5454   25.5194 C   0  0  0  0  0  0  0  0  0  0  0  0
    5.4672   12.5827   26.4593 C   0  0  0  0  0  0  0  0  0  0  0  0
    4.3075   13.0016   27.1410 C   0  0  0  0  0  0  0  0  0  0  0  0
    3.6912   12.1778   28.0844 C   0  0  0  0  0  0  0  0  0  0  0  0
    4.2041   10.9081   28.3263 C   0  0  0  0  0  0  0  0  0  0  0  0
    3.4316    9.8795   29.4669 Cl  0  0  0  0  0  0  0  0  0  0  0  0
    5.3088   10.4474   27.6162 C   0  0  0  0  0  0  0  0  0  0  0  0
    5.9364   11.2808   26.6850 C   0  0  0  0  0  0  0  0  0  0  0  0
    7.2620   10.6363   25.7889 Cl  0  0  0  0  0  0  0  0  0  0  0  0
    7.6476   14.6687   27.2592 C   0  0  0  0  0  0  0  0  0  0  0  0
    6.8157   14.9886   28.3379 C   0  0  0  0  0  0  0  0  0  0  0  0
    7.3954   15.5854   29.4574 C   0  0  0  0  0  0  0  0  0  0  0  0
    8.7534   15.8793   29.4913 C   0  0  0  0  0  0  0  0  0  0  0  0
    9.5718   15.5876   28.3995 C   0  0  0  0  0  0  0  0  0  0  0  0
    9.0077   14.9692   27.2700 C   0  0  0  0  0  0  0  0  0  0  0  0
  1  2  1  0
  2  3  1  0
  3  4  1  0
  4  5  2  0
  5  6  1  0
  6  7  1  0
  7  8  1  0
  8  9  1  0
  9 10  1  0
 10 11  2  0
 10 12  1  0
 12 13  2  0
 13 14  1  0
 14 15  1  0
 15 16  1  0
 16 17  2  0
 17 18  1  0
 18 19  2  0
 19 20  1  0
 19 21  1  0
 21 22  2  0
 22 23  1  0
 14 24  1  0
 24 25  2  0
 25 26  1  0
 26 27  2  0
 27 28  1  0
 28 29  2  0
  6  2  2  0
 29 12  1  0
 22 16  1  0
 29 24  1  0
M  END
>  <energy_score>  (168) 
-39.436791

>  <fragmenstein_runtime>  (168) 
14.868447

>  <HIPPO Pose ID>  (168) 
503487

>  <fragmenstein_error>  (168) 


>  <alias>  (168) 
ZISRNSWUMNARNW-UHFFFAOYSA-N-P183-P126-P183-601502

>  <orig_smiles>  (168) 
Cc1ocnc1CCNC(=O)c1nn(Cc2ccc(Cl)cc2Cl)c2ccccc12

>  <smiles>  (168) 
Cc1ocnc1CCNC(=O)c1nn(Cc2ccc(Cl)cc2Cl)c2ccccc12

>  <inchikey>  (168) 
ZISRNSWUMNARNW-UHFFFAOYSA-N

>  <HIPPO Compound ID>  (168) 
289878

>  <fragmenstein_mode>  (168) 
expansion

>  <fragmenstein_outcome>  (168) 
too moved

>  <distance_score>  (168) 
3.709979

>  <subsites>  (168) 
None

>  <scratch_subdir>  (168) 
/opt/xchem-fragalysis-2/maxwin/BulkDock/SCRATCH/601502/ZISRNSWUMNARNW-UHFFFAOYSA-N-P183-P126-P183-601502

>  <inspiration_score>  (168) 
None

>  <name>  (168) 
ZISRNSWUMNARNW-UHFFFAOYSA-N-P183-P126-P183-601502

>  <ref_mols>  (168) 
A2290a,A3436a

>  <ref_pdb>  (168) 
A0514a

>  <exports>  (168) 
['/opt/xchem-fragalysis-2/maxwin/openbind-hippo/a71ev2a/cycle_01/syndirella/elabs/ASAP-0031281-001_elabs.sdf']

>  <Energy>  (168) 
87.03339

>  <tags>  (168) 
fragmenstein_placed,a71ev2a_c1_elab_bulkdock_input

>  <GNINA pK>  (168) 
nan

$$$$
WMPMKDVSPIZPCW-UHFFFAOYSA-N-P126-P126-P183-601502
     RDKit          3D

 29 32  0  0  0  0  0  0  0  0999 V2000
   10.2056   14.1031   25.3941 O   0  0  0  0  0  0  0  0  0  0  0  0
   10.3655   13.3212   24.5487 C   0  0  0  0  0  0  0  0  0  0  0  0
   11.3844   13.2831   23.4180 N   0  0  0  0  0  0  0  0  0  0  0  0
   12.3570   14.2298   23.0253 C   0  0  0  0  0  0  0  0  0  0  0  0
   12.6881   14.1464   21.5687 C   0  0  0  0  0  0  0  0  0  0  0  0
   11.6365   14.5927   20.6731 C   0  0  0  0  0  0  0  0  0  0  0  0
   11.6235   14.4343   19.3158 C   0  0  0  0  0  0  0  0  0  0  0  0
   10.5803   15.1172   18.8444 O   0  0  0  0  0  0  0  0  0  0  0  0
   10.0796   15.7446   19.9290 C   0  0  0  0  0  0  0  0  0  0  0  0
    9.2930   16.8841   19.6053 C   0  0  0  0  0  0  0  0  0  0  0  0
    9.0450   17.2115   18.2812 C   0  0  0  0  0  0  0  0  0  0  0  0
    8.1680   18.2153   17.9959 C   0  0  0  0  0  0  0  0  0  0  0  0
    7.6455   18.9733   19.0184 C   0  0  0  0  0  0  0  0  0  0  0  0
    8.0589   18.7849   20.3056 C   0  0  0  0  0  0  0  0  0  0  0  0
    8.8081   17.6876   20.6122 C   0  0  0  0  0  0  0  0  0  0  0  0
   10.5951   15.3751   21.0789 N   0  0  0  0  0  0  0  0  0  0  0  0
    9.6256   12.0662   24.4453 C   0  0  0  0  0  0  0  0  0  0  0  0
   10.0776   11.1064   23.6186 N   0  0  0  0  0  0  0  0  0  0  0  0
    9.2823   10.0405   23.8539 N   0  0  0  0  0  0  0  0  0  0  0  0
    9.4869    8.8146   23.0644 C   0  0  0  0  0  0  0  0  0  0  0  0
    9.9527    9.0936   21.8231 F   0  0  0  0  0  0  0  0  0  0  0  0
    8.3370    8.1324   22.9245 F   0  0  0  0  0  0  0  0  0  0  0  0
   10.3886    7.9690   23.6091 F   0  0  0  0  0  0  0  0  0  0  0  0
    8.3236   10.3182   24.8130 C   0  0  0  0  0  0  0  0  0  0  0  0
    7.3286    9.5523   25.4159 C   0  0  0  0  0  0  0  0  0  0  0  0
    6.4820   10.1598   26.3491 C   0  0  0  0  0  0  0  0  0  0  0  0
    6.6231   11.5024   26.6781 C   0  0  0  0  0  0  0  0  0  0  0  0
    7.6333   12.2635   26.0949 C   0  0  0  0  0  0  0  0  0  0  0  0
    8.4924   11.6557   25.1623 C   0  0  0  0  0  0  0  0  0  0  0  0
  1  2  2  0
  2  3  1  0
  3  4  1  0
  4  5  1  0
  5  6  1  0
  6  7  2  0
  7  8  1  0
  8  9  1  0
  9 10  1  0
 10 11  2  0
 11 12  1  0
 12 13  2  0
 13 14  1  0
 14 15  2  0
  9 16  2  0
  2 17  1  0
 17 18  2  0
 18 19  1  0
 19 20  1  0
 20 21  1  0
 20 22  1  0
 20 23  1  0
 19 24  1  0
 24 25  2  0
 25 26  1  0
 26 27  2  0
 27 28  1  0
 28 29  2  0
 16  6  1  0
 29 17  1  0
 15 10  1  0
 29 24  1  0
M  END
>  <energy_score>  (169) 
-16.493409

>  <fragmenstein_runtime>  (169) 
7.060006

>  <HIPPO Pose ID>  (169) 
503488

>  <fragmenstein_error>  (169) 


>  <alias>  (169) 
WMPMKDVSPIZPCW-UHFFFAOYSA-N-P126-P126-P183-601502

>  <orig_smiles>  (169) 
O=C(NCCc1coc(-c2ccccc2)n1)c1nn(C(F)(F)F)c2ccccc12

>  <smiles>  (169) 
O=C(NCCc1coc(-c2ccccc2)n1)c1nn(C(F)(F)F)c2ccccc12

>  <inchikey>  (169) 
WMPMKDVSPIZPCW-UHFFFAOYSA-N

>  <HIPPO Compound ID>  (169) 
289879

>  <fragmenstein_mode>  (169) 
expansion

>  <fragmenstein_outcome>  (169) 
acceptable

>  <distance_score>  (169) 
0.905136

>  <subsites>  (169) 
None

>  <scratch_subdir>  (169) 
/opt/xchem-fragalysis-2/maxwin/BulkDock/SCRATCH/601502/WMPMKDVSPIZPCW-UHFFFAOYSA-N-P126-P126-P183-601502

>  <inspiration_score>  (169) 
None

>  <name>  (169) 
WMPMKDVSPIZPCW-UHFFFAOYSA-N-P126-P126-P183-601502

>  <ref_mols>  (169) 
A2290a,A3436a

>  <ref_pdb>  (169) 
A0514a

>  <exports>  (169) 
['/opt/xchem-fragalysis-2/maxwin/openbind-hippo/a71ev2a/cycle_01/syndirella/elabs/openbind_a71ev2a_c1_elab_chemspace_filtered.sdf', '/opt/xchem-fragalysis-2/maxwin/BulkDock/OUTPUTS/a71ev2a_c1_elab_bulkdock_input_1GFT2LV.sdf', '/opt/xchem-fragalysis-2/maxwin/openbind-hippo/a71ev2a/cycle_01/syndirella/elabs/ASAP-0031281-001_elabs.sdf']

>  <Energy>  (169) 
185.542645

>  <tags>  (169) 
fragmenstein_placed,a71ev2a_c1_elab_bulkdock_input,BulkDock Fragalysis export,openbind_a71ev2a_c1_elabs_filtered

>  <GNINA pK>  (169) 
nan

$$$$
WMPMKDVSPIZPCW-UHFFFAOYSA-N-P183-P126-P183-601502
     RDKit          3D

 29 32  0  0  0  0  0  0  0  0999 V2000
   10.1173   14.4549   25.0579 O   0  0  0  0  0  0  0  0  0  0  0  0
   10.2226   13.6645   24.2123 C   0  0  0  0  0  0  0  0  0  0  0  0
   11.1450   13.6307   23.0000 N   0  0  0  0  0  0  0  0  0  0  0  0
   12.0710   14.6017   22.5101 C   0  0  0  0  0  0  0  0  0  0  0  0
   12.4182   14.3249   21.0604 C   0  0  0  0  0  0  0  0  0  0  0  0
   11.3594   14.6100   20.1026 C   0  0  0  0  0  0  0  0  0  0  0  0
   11.4344   14.8094   18.7493 C   0  0  0  0  0  0  0  0  0  0  0  0
   10.3088   15.4677   18.3891 O   0  0  0  0  0  0  0  0  0  0  0  0
    9.6383   15.5655   19.5528 C   0  0  0  0  0  0  0  0  0  0  0  0
    9.0137   16.8187   19.7593 C   0  0  0  0  0  0  0  0  0  0  0  0
    8.3219   17.5460   18.8163 C   0  0  0  0  0  0  0  0  0  0  0  0
    7.8003   18.7852   19.0546 C   0  0  0  0  0  0  0  0  0  0  0  0
    8.1115   19.3277   20.2500 C   0  0  0  0  0  0  0  0  0  0  0  0
    8.8556   18.6306   21.1681 C   0  0  0  0  0  0  0  0  0  0  0  0
    9.2545   17.3599   20.9664 C   0  0  0  0  0  0  0  0  0  0  0  0
   10.0942   14.8193   20.5274 N   0  0  0  0  0  0  0  0  0  0  0  0
    9.4484   12.4198   24.1975 C   0  0  0  0  0  0  0  0  0  0  0  0
    9.8625   11.3809   23.4542 N   0  0  0  0  0  0  0  0  0  0  0  0
    9.1246   10.3346   23.8857 N   0  0  0  0  0  0  0  0  0  0  0  0
    9.4901    8.9817   23.4494 C   0  0  0  0  0  0  0  0  0  0  0  0
    8.6635    8.0660   23.9919 F   0  0  0  0  0  0  0  0  0  0  0  0
   10.7512    8.6553   23.8281 F   0  0  0  0  0  0  0  0  0  0  0  0
    9.4490    8.8403   22.1095 F   0  0  0  0  0  0  0  0  0  0  0  0
    8.1654   10.7127   24.8110 C   0  0  0  0  0  0  0  0  0  0  0  0
    7.2045   10.0081   25.5478 C   0  0  0  0  0  0  0  0  0  0  0  0
    6.3587   10.7218   26.4022 C   0  0  0  0  0  0  0  0  0  0  0  0
    6.4663   12.1015   26.5246 C   0  0  0  0  0  0  0  0  0  0  0  0
    7.4398   12.7991   25.8090 C   0  0  0  0  0  0  0  0  0  0  0  0
    8.3072   12.0906   24.9576 C   0  0  0  0  0  0  0  0  0  0  0  0
  1  2  2  0
  2  3  1  0
  3  4  1  0
  4  5  1  0
  5  6  1  0
  6  7  2  0
  7  8  1  0
  8  9  1  0
  9 10  1  0
 10 11  2  0
 11 12  1  0
 12 13  2  0
 13 14  1  0
 14 15  2  0
  9 16  2  0
  2 17  1  0
 17 18  2  0
 18 19  1  0
 19 20  1  0
 20 21  1  0
 20 22  1  0
 20 23  1  0
 19 24  1  0
 24 25  2  0
 25 26  1  0
 26 27  2  0
 27 28  1  0
 28 29  2  0
 16  6  1  0
 29 17  1  0
 15 10  1  0
 29 24  1  0
M  END
>  <energy_score>  (170) 
5.800226

>  <fragmenstein_runtime>  (170) 
4.778079

>  <HIPPO Pose ID>  (170) 
503489

>  <fragmenstein_error>  (170) 


>  <alias>  (170) 
WMPMKDVSPIZPCW-UHFFFAOYSA-N-P183-P126-P183-601502

>  <orig_smiles>  (170) 
O=C(NCCc1coc(-c2ccccc2)n1)c1nn(C(F)(F)F)c2ccccc12

>  <smiles>  (170) 
O=C(NCCc1coc(-c2ccccc2)n1)c1nn(C(F)(F)F)c2ccccc12

>  <inchikey>  (170) 
WMPMKDVSPIZPCW-UHFFFAOYSA-N

>  <HIPPO Compound ID>  (170) 
289879

>  <fragmenstein_mode>  (170) 
expansion

>  <fragmenstein_outcome>  (170) 
too contorted

>  <distance_score>  (170) 
0.869104

>  <subsites>  (170) 
None

>  <scratch_subdir>  (170) 
/opt/xchem-fragalysis-2/maxwin/BulkDock/SCRATCH/601502/WMPMKDVSPIZPCW-UHFFFAOYSA-N-P183-P126-P183-601502

>  <inspiration_score>  (170) 
None

>  <name>  (170) 
WMPMKDVSPIZPCW-UHFFFAOYSA-N-P183-P126-P183-601502

>  <ref_mols>  (170) 
A2290a,A3436a

>  <ref_pdb>  (170) 
A0514a

>  <exports>  (170) 
['/opt/xchem-fragalysis-2/maxwin/openbind-hippo/a71ev2a/cycle_01/bulkdock/openbind_a71ev2a_c1_elab_chemspace.sdf', '/opt/xchem-fragalysis-2/maxwin/openbind-hippo/a71ev2a/cycle_01/syndirella/elabs/ASAP-0031281-001_elabs.sdf']

>  <Energy>  (170) 
207.83628

>  <tags>  (170) 
fragmenstein_placed,a71ev2a_c1_elab_bulkdock_input

>  <GNINA pK>  (170) 
nan

$$$$
SZCPCOPONKIZGU-UHFFFAOYSA-N-P126-P126-P183-601502
     RDKit          3D

 30 33  0  0  0  0  0  0  0  0999 V2000
   11.9569   14.2215   18.5128 C   0  0  0  0  0  0  0  0  0  0  0  0
   11.1981   14.5932   19.6704 C   0  0  0  0  0  0  0  0  0  0  0  0
    9.9890   15.0675   19.4030 O   0  0  0  0  0  0  0  0  0  0  0  0
    9.7968   15.9000   20.4387 C   0  0  0  0  0  0  0  0  0  0  0  0
    9.1685   17.0836   19.9624 C   0  0  0  0  0  0  0  0  0  0  0  0
    9.1263   17.2765   18.5681 C   0  0  0  0  0  0  0  0  0  0  0  0
    8.2518   18.1718   18.0458 C   0  0  0  0  0  0  0  0  0  0  0  0
    7.5835   18.9935   18.9115 C   0  0  0  0  0  0  0  0  0  0  0  0
    7.8644   19.0007   20.2483 C   0  0  0  0  0  0  0  0  0  0  0  0
    8.5933   17.9923   20.8023 C   0  0  0  0  0  0  0  0  0  0  0  0
   10.4849   15.5929   21.5156 N   0  0  0  0  0  0  0  0  0  0  0  0
   11.4245   14.7369   21.0034 C   0  0  0  0  0  0  0  0  0  0  0  0
   12.5895   14.2461   21.7294 C   0  0  0  0  0  0  0  0  0  0  0  0
   12.3553   14.1103   23.2025 C   0  0  0  0  0  0  0  0  0  0  0  0
   11.3401   13.1902   23.5509 N   0  0  0  0  0  0  0  0  0  0  0  0
   10.2608   13.2658   24.6218 C   0  0  0  0  0  0  0  0  0  0  0  0
   10.0722   14.0618   25.4477 O   0  0  0  0  0  0  0  0  0  0  0  0
    9.4814   12.0369   24.5146 C   0  0  0  0  0  0  0  0  0  0  0  0
    9.8924   11.0373   23.7129 N   0  0  0  0  0  0  0  0  0  0  0  0
    9.0418   10.0365   23.9714 N   0  0  0  0  0  0  0  0  0  0  0  0
    9.2235    8.7998   23.2500 C   0  0  0  0  0  0  0  0  0  0  0  0
    8.0980   10.3623   24.9182 C   0  0  0  0  0  0  0  0  0  0  0  0
    7.0731    9.6407   25.5265 C   0  0  0  0  0  0  0  0  0  0  0  0
    6.2340   10.2990   26.4287 C   0  0  0  0  0  0  0  0  0  0  0  0
    6.4317   11.6504   26.7159 C   0  0  0  0  0  0  0  0  0  0  0  0
    5.5364   12.3177   27.6600 N   0  0  0  0  0  0  0  0  0  0  0  0
    4.3965   11.8498   27.8012 O   0  0  0  0  0  0  0  0  0  0  0  0
    5.9867   13.2856   28.2892 O   0  0  0  0  0  0  0  0  0  0  0  0
    7.4845   12.3696   26.1435 C   0  0  0  0  0  0  0  0  0  0  0  0
    8.3214   11.6981   25.2339 C   0  0  0  0  0  0  0  0  0  0  0  0
  1  2  1  0
  2  3  1  0
  3  4  1  0
  4  5  1  0
  5  6  2  0
  6  7  1  0
  7  8  2  0
  8  9  1  0
  9 10  2  0
  4 11  2  0
 11 12  1  0
 12 13  1  0
 13 14  1  0
 14 15  1  0
 15 16  1  0
 16 17  2  0
 16 18  1  0
 18 19  2  0
 19 20  1  0
 20 21  1  0
 20 22  1  0
 22 23  2  0
 23 24  1  0
 24 25  2  0
 25 26  1  0
 26 27  2  0
 26 28  1  0
 25 29  1  0
 29 30  2  0
 12  2  2  0
 30 18  1  0
 10  5  1  0
 30 22  1  0
M  CHG  2  26   1  28  -1
M  END
>  <energy_score>  (171) 
11.060551

>  <fragmenstein_runtime>  (171) 
5.229419

>  <HIPPO Pose ID>  (171) 
503490

>  <fragmenstein_error>  (171) 


>  <alias>  (171) 
SZCPCOPONKIZGU-UHFFFAOYSA-N-P126-P126-P183-601502

>  <orig_smiles>  (171) 
Cc1oc(-c2ccccc2)nc1CCNC(=O)c1nn(C)c2ccc([N+](=O)[O-])cc12

>  <smiles>  (171) 
Cc1oc(-c2ccccc2)nc1CCNC(=O)c1nn(C)c2ccc([N+](=O)[O-])cc12

>  <inchikey>  (171) 
SZCPCOPONKIZGU-UHFFFAOYSA-N

>  <HIPPO Compound ID>  (171) 
289880

>  <fragmenstein_mode>  (171) 
expansion

>  <fragmenstein_outcome>  (171) 
too contorted

>  <distance_score>  (171) 
0.865842

>  <subsites>  (171) 
None

>  <scratch_subdir>  (171) 
/opt/xchem-fragalysis-2/maxwin/BulkDock/SCRATCH/601502/SZCPCOPONKIZGU-UHFFFAOYSA-N-P126-P126-P183-601502

>  <inspiration_score>  (171) 
None

>  <name>  (171) 
SZCPCOPONKIZGU-UHFFFAOYSA-N-P126-P126-P183-601502

>  <ref_mols>  (171) 
A2290a,A3436a

>  <ref_pdb>  (171) 
A0514a

>  <exports>  (171) 
['/opt/xchem-fragalysis-2/maxwin/openbind-hippo/a71ev2a/cycle_01/syndirella/elabs/ASAP-0031281-001_elabs.sdf']

>  <Energy>  (171) 
163.031828

>  <tags>  (171) 
fragmenstein_placed,a71ev2a_c1_elab_bulkdock_input

>  <GNINA pK>  (171) 
nan

$$$$
SZCPCOPONKIZGU-UHFFFAOYSA-N-P183-P126-P183-601502
     RDKit          3D

 30 33  0  0  0  0  0  0  0  0999 V2000
   12.0004   14.7783   18.0965 C   0  0  0  0  0  0  0  0  0  0  0  0
   11.0526   14.8473   19.1585 C   0  0  0  0  0  0  0  0  0  0  0  0
    9.8775   15.3576   18.7914 O   0  0  0  0  0  0  0  0  0  0  0  0
    9.3987   15.7443   19.9784 C   0  0  0  0  0  0  0  0  0  0  0  0
    8.8405   17.0358   19.8881 C   0  0  0  0  0  0  0  0  0  0  0  0
    8.2571   17.5630   18.7583 C   0  0  0  0  0  0  0  0  0  0  0  0
    7.6198   18.7688   18.7362 C   0  0  0  0  0  0  0  0  0  0  0  0
    7.7002   19.4788   19.8609 C   0  0  0  0  0  0  0  0  0  0  0  0
    8.4604   19.0396   20.8993 C   0  0  0  0  0  0  0  0  0  0  0  0
    9.0135   17.8221   20.9473 C   0  0  0  0  0  0  0  0  0  0  0  0
    9.9438   15.1948   21.0401 N   0  0  0  0  0  0  0  0  0  0  0  0
   11.1116   14.7477   20.5224 C   0  0  0  0  0  0  0  0  0  0  0  0
   12.2728   14.4121   21.3523 C   0  0  0  0  0  0  0  0  0  0  0  0
   12.0379   14.4956   22.8420 C   0  0  0  0  0  0  0  0  0  0  0  0
   11.0824   13.5262   23.2624 N   0  0  0  0  0  0  0  0  0  0  0  0
   10.0378   13.5811   24.3669 C   0  0  0  0  0  0  0  0  0  0  0  0
    9.8315   14.3955   25.1697 O   0  0  0  0  0  0  0  0  0  0  0  0
    9.2975   12.3184   24.3243 C   0  0  0  0  0  0  0  0  0  0  0  0
    9.7463   11.2784   23.5971 N   0  0  0  0  0  0  0  0  0  0  0  0
    8.9803   10.2480   23.9841 N   0  0  0  0  0  0  0  0  0  0  0  0
    9.2924    8.9413   23.4509 C   0  0  0  0  0  0  0  0  0  0  0  0
    8.0192   10.6057   24.9043 C   0  0  0  0  0  0  0  0  0  0  0  0
    7.0523    9.8811   25.6060 C   0  0  0  0  0  0  0  0  0  0  0  0
    6.1792   10.5714   26.4500 C   0  0  0  0  0  0  0  0  0  0  0  0
    6.2744   11.9579   26.5776 C   0  0  0  0  0  0  0  0  0  0  0  0
    5.3373   12.6591   27.4552 N   0  0  0  0  0  0  0  0  0  0  0  0
    4.2536   12.1064   27.6986 O   0  0  0  0  0  0  0  0  0  0  0  0
    5.7035   13.7397   27.9377 O   0  0  0  0  0  0  0  0  0  0  0  0
    7.2607   12.6851   25.9033 C   0  0  0  0  0  0  0  0  0  0  0  0
    8.1458   11.9816   25.0645 C   0  0  0  0  0  0  0  0  0  0  0  0
  1  2  1  0
  2  3  1  0
  3  4  1  0
  4  5  1  0
  5  6  2  0
  6  7  1  0
  7  8  2  0
  8  9  1  0
  9 10  2  0
  4 11  2  0
 11 12  1  0
 12 13  1  0
 13 14  1  0
 14 15  1  0
 15 16  1  0
 16 17  2  0
 16 18  1  0
 18 19  2  0
 19 20  1  0
 20 21  1  0
 20 22  1  0
 22 23  2  0
 23 24  1  0
 24 25  2  0
 25 26  1  0
 26 27  2  0
 26 28  1  0
 25 29  1  0
 29 30  2  0
 12  2  2  0
 30 18  1  0
 10  5  1  0
 30 22  1  0
M  CHG  2  26   1  28  -1
M  END
>  <energy_score>  (172) 
15.788706

>  <fragmenstein_runtime>  (172) 
7.969141

>  <HIPPO Pose ID>  (172) 
503491

>  <fragmenstein_error>  (172) 


>  <alias>  (172) 
SZCPCOPONKIZGU-UHFFFAOYSA-N-P183-P126-P183-601502

>  <orig_smiles>  (172) 
Cc1oc(-c2ccccc2)nc1CCNC(=O)c1nn(C)c2ccc([N+](=O)[O-])cc12

>  <smiles>  (172) 
Cc1oc(-c2ccccc2)nc1CCNC(=O)c1nn(C)c2ccc([N+](=O)[O-])cc12

>  <inchikey>  (172) 
SZCPCOPONKIZGU-UHFFFAOYSA-N

>  <HIPPO Compound ID>  (172) 
289880

>  <fragmenstein_mode>  (172) 
expansion

>  <fragmenstein_outcome>  (172) 
too contorted

>  <distance_score>  (172) 
0.802352

>  <subsites>  (172) 
None

>  <scratch_subdir>  (172) 
/opt/xchem-fragalysis-2/maxwin/BulkDock/SCRATCH/601502/SZCPCOPONKIZGU-UHFFFAOYSA-N-P183-P126-P183-601502

>  <inspiration_score>  (172) 
None

>  <name>  (172) 
SZCPCOPONKIZGU-UHFFFAOYSA-N-P183-P126-P183-601502

>  <ref_mols>  (172) 
A2290a,A3436a

>  <ref_pdb>  (172) 
A0514a

>  <exports>  (172) 
['/opt/xchem-fragalysis-2/maxwin/openbind-hippo/a71ev2a/cycle_01/bulkdock/openbind_a71ev2a_c1_elab_chemspace.sdf', '/opt/xchem-fragalysis-2/maxwin/openbind-hippo/a71ev2a/cycle_01/syndirella/elabs/ASAP-0031281-001_elabs.sdf']

>  <Energy>  (172) 
167.759983

>  <tags>  (172) 
fragmenstein_placed,a71ev2a_c1_elab_bulkdock_input

>  <GNINA pK>  (172) 
nan

$$$$
GYGUNKGZHKAVAK-UHFFFAOYSA-N-P126-P126-P183-601502
     RDKit          3D

 30 33  0  0  0  0  0  0  0  0999 V2000
    8.4906    8.9051   24.2516 C   0  0  0  0  0  0  0  0  0  0  0  0
    8.1429   10.1676   24.8446 N   0  0  0  0  0  0  0  0  0  0  0  0
    8.9937   11.1523   24.6168 N   0  0  0  0  0  0  0  0  0  0  0  0
    8.5958   12.1504   25.4278 C   0  0  0  0  0  0  0  0  0  0  0  0
    9.4898   13.3061   25.5001 C   0  0  0  0  0  0  0  0  0  0  0  0
    9.1841   14.3776   25.9322 O   0  0  0  0  0  0  0  0  0  0  0  0
   10.6807   12.8623   24.8758 N   0  0  0  0  0  0  0  0  0  0  0  0
   11.7690   13.5226   24.5069 C   0  0  0  0  0  0  0  0  0  0  0  0
   12.5800   12.9988   23.6252 N   0  0  0  0  0  0  0  0  0  0  0  0
   12.4479   13.9374   22.6463 C   0  0  0  0  0  0  0  0  0  0  0  0
   11.8856   13.5887   21.2895 C   0  0  0  0  0  0  0  0  0  0  0  0
   10.4129   13.9163   21.1942 C   0  0  0  0  0  0  0  0  0  0  0  0
   10.6999   15.2503   20.4900 N   0  0  0  0  0  0  0  0  0  0  0  0
    9.6126   15.6411   19.6842 C   0  0  0  0  0  0  0  0  0  0  0  0
    9.3766   15.4123   18.5368 O   0  0  0  0  0  0  0  0  0  0  0  0
    8.7867   16.4818   20.3645 O   0  0  0  0  0  0  0  0  0  0  0  0
    8.6260   17.8252   19.8138 C   0  0  0  0  0  0  0  0  0  0  0  0
    7.3276   18.4805   19.3590 C   0  0  0  0  0  0  0  0  0  0  0  0
    9.4537   18.0577   18.5692 C   0  0  0  0  0  0  0  0  0  0  0  0
    8.7909   18.5324   21.1135 C   0  0  0  0  0  0  0  0  0  0  0  0
   11.9769   14.5036   20.1455 C   0  0  0  0  0  0  0  0  0  0  0  0
   12.0797   15.1278   23.1735 C   0  0  0  0  0  0  0  0  0  0  0  0
   11.6502   14.8632   24.4407 O   0  0  0  0  0  0  0  0  0  0  0  0
    7.4152   11.8229   26.1126 C   0  0  0  0  0  0  0  0  0  0  0  0
    6.5882   12.4676   27.0475 C   0  0  0  0  0  0  0  0  0  0  0  0
    5.5116   11.7574   27.5771 C   0  0  0  0  0  0  0  0  0  0  0  0
    4.3816   12.5901   28.8449 Br  0  0  0  0  0  0  0  0  0  0  0  0
    5.2544   10.4449   27.1921 C   0  0  0  0  0  0  0  0  0  0  0  0
    6.0583    9.8025   26.2458 C   0  0  0  0  0  0  0  0  0  0  0  0
    7.1493   10.5033   25.7292 C   0  0  0  0  0  0  0  0  0  0  0  0
  1  2  1  0
  2  3  1  0
  3  4  2  0
  4  5  1  0
  5  6  2  0
  5  7  1  0
  7  8  1  0
  8  9  2  0
  9 10  1  0
 10 11  1  0
 11 12  1  0
 12 13  1  0
 13 14  1  0
 14 15  2  0
 14 16  1  0
 16 17  1  0
 17 18  1  0
 17 19  1  0
 17 20  1  0
 13 21  1  0
 10 22  2  0
 22 23  1  0
  4 24  1  0
 24 25  2  0
 25 26  1  0
 26 27  1  0
 26 28  2  0
 28 29  1  0
 29 30  2  0
 30  2  1  0
 23  8  1  0
 30 24  1  0
 21 11  1  0
M  END
>  <energy_score>  (173) 
33.909258

>  <fragmenstein_runtime>  (173) 
18.250196

>  <HIPPO Pose ID>  (173) 
503492

>  <fragmenstein_error>  (173) 


>  <alias>  (173) 
GYGUNKGZHKAVAK-UHFFFAOYSA-N-P126-P126-P183-601502

>  <orig_smiles>  (173) 
Cn1nc(C(=O)Nc2nc(C3CN(C(=O)OC(C)(C)C)C3)co2)c2cc(Br)ccc21

>  <smiles>  (173) 
Cn1nc(C(=O)Nc2nc(C3CN(C(=O)OC(C)(C)C)C3)co2)c2cc(Br)ccc21

>  <inchikey>  (173) 
GYGUNKGZHKAVAK-UHFFFAOYSA-N

>  <HIPPO Compound ID>  (173) 
289881

>  <fragmenstein_mode>  (173) 
expansion

>  <fragmenstein_outcome>  (173) 
too moved

>  <distance_score>  (173) 
2.505069

>  <subsites>  (173) 
None

>  <scratch_subdir>  (173) 
/opt/xchem-fragalysis-2/maxwin/BulkDock/SCRATCH/601502/GYGUNKGZHKAVAK-UHFFFAOYSA-N-P126-P126-P183-601502

>  <inspiration_score>  (173) 
None

>  <name>  (173) 
GYGUNKGZHKAVAK-UHFFFAOYSA-N-P126-P126-P183-601502

>  <ref_mols>  (173) 
A2290a,A3436a

>  <ref_pdb>  (173) 
A0514a

>  <exports>  (173) 
['/opt/xchem-fragalysis-2/maxwin/openbind-hippo/a71ev2a/cycle_01/syndirella/elabs/ASAP-0031281-001_elabs.sdf']

>  <Energy>  (173) 
115.990689

>  <tags>  (173) 
fragmenstein_placed,a71ev2a_c1_elab_bulkdock_input

>  <GNINA pK>  (173) 
nan

$$$$
GYGUNKGZHKAVAK-UHFFFAOYSA-N-P183-P126-P183-601502
     RDKit          3D

 30 33  0  0  0  0  0  0  0  0999 V2000
    8.7861    9.0639   24.0038 C   0  0  0  0  0  0  0  0  0  0  0  0
    8.3776   10.3447   24.5321 N   0  0  0  0  0  0  0  0  0  0  0  0
    9.1071   11.3965   24.1682 N   0  0  0  0  0  0  0  0  0  0  0  0
    8.6463   12.4054   24.9324 C   0  0  0  0  0  0  0  0  0  0  0  0
    9.4383   13.6326   24.9899 C   0  0  0  0  0  0  0  0  0  0  0  0
    9.0058   14.6750   25.3783 O   0  0  0  0  0  0  0  0  0  0  0  0
   10.6891   13.3018   24.4245 N   0  0  0  0  0  0  0  0  0  0  0  0
   11.7203   14.0659   24.0751 C   0  0  0  0  0  0  0  0  0  0  0  0
   12.6545   13.5787   23.3071 N   0  0  0  0  0  0  0  0  0  0  0  0
   12.5212   14.4341   22.2404 C   0  0  0  0  0  0  0  0  0  0  0  0
   11.8522   13.8647   20.9768 C   0  0  0  0  0  0  0  0  0  0  0  0
   10.4204   14.3650   20.8886 C   0  0  0  0  0  0  0  0  0  0  0  0
   11.0096   15.5037   20.0048 N   0  0  0  0  0  0  0  0  0  0  0  0
   10.0063   16.1952   19.3443 C   0  0  0  0  0  0  0  0  0  0  0  0
    9.5114   16.0106   18.2759 O   0  0  0  0  0  0  0  0  0  0  0  0
    9.7534   17.2231   20.1556 O   0  0  0  0  0  0  0  0  0  0  0  0
    8.7955   18.2511   19.9954 C   0  0  0  0  0  0  0  0  0  0  0  0
    8.6658   18.6920   21.3872 C   0  0  0  0  0  0  0  0  0  0  0  0
    7.5319   17.7699   19.5539 C   0  0  0  0  0  0  0  0  0  0  0  0
    8.9203   19.4157   19.0820 C   0  0  0  0  0  0  0  0  0  0  0  0
   11.8602   14.3881   19.5730 C   0  0  0  0  0  0  0  0  0  0  0  0
   12.1253   15.6492   22.7067 C   0  0  0  0  0  0  0  0  0  0  0  0
   11.5149   15.3939   23.9146 O   0  0  0  0  0  0  0  0  0  0  0  0
    7.5082   12.0345   25.6671 C   0  0  0  0  0  0  0  0  0  0  0  0
    6.6477   12.6797   26.5750 C   0  0  0  0  0  0  0  0  0  0  0  0
    5.6916   11.9160   27.2412 C   0  0  0  0  0  0  0  0  0  0  0  0
    4.5399   12.7432   28.4907 Br  0  0  0  0  0  0  0  0  0  0  0  0
    5.5816   10.5501   27.0107 C   0  0  0  0  0  0  0  0  0  0  0  0
    6.4071    9.9130   26.0798 C   0  0  0  0  0  0  0  0  0  0  0  0
    7.3893   10.6643   25.4347 C   0  0  0  0  0  0  0  0  0  0  0  0
  1  2  1  0
  2  3  1  0
  3  4  2  0
  4  5  1  0
  5  6  2  0
  5  7  1  0
  7  8  1  0
  8  9  2  0
  9 10  1  0
 10 11  1  0
 11 12  1  0
 12 13  1  0
 13 14  1  0
 14 15  2  0
 14 16  1  0
 16 17  1  0
 17 18  1  0
 17 19  1  0
 17 20  1  0
 13 21  1  0
 10 22  2  0
 22 23  1  0
  4 24  1  0
 24 25  2  0
 25 26  1  0
 26 27  1  0
 26 28  2  0
 28 29  1  0
 29 30  2  0
 30  2  1  0
 23  8  1  0
 30 24  1  0
 21 11  1  0
M  END
>  <energy_score>  (174) 
29.197196

>  <fragmenstein_runtime>  (174) 
18.711445

>  <HIPPO Pose ID>  (174) 
503493

>  <fragmenstein_error>  (174) 


>  <alias>  (174) 
GYGUNKGZHKAVAK-UHFFFAOYSA-N-P183-P126-P183-601502

>  <orig_smiles>  (174) 
Cn1nc(C(=O)Nc2nc(C3CN(C(=O)OC(C)(C)C)C3)co2)c2cc(Br)ccc21

>  <smiles>  (174) 
Cn1nc(C(=O)Nc2nc(C3CN(C(=O)OC(C)(C)C)C3)co2)c2cc(Br)ccc21

>  <inchikey>  (174) 
GYGUNKGZHKAVAK-UHFFFAOYSA-N

>  <HIPPO Compound ID>  (174) 
289881

>  <fragmenstein_mode>  (174) 
expansion

>  <fragmenstein_outcome>  (174) 
too moved

>  <distance_score>  (174) 
2.100631

>  <subsites>  (174) 
None

>  <scratch_subdir>  (174) 
/opt/xchem-fragalysis-2/maxwin/BulkDock/SCRATCH/601502/GYGUNKGZHKAVAK-UHFFFAOYSA-N-P183-P126-P183-601502

>  <inspiration_score>  (174) 
None

>  <name>  (174) 
GYGUNKGZHKAVAK-UHFFFAOYSA-N-P183-P126-P183-601502

>  <ref_mols>  (174) 
A2290a,A3436a

>  <ref_pdb>  (174) 
A0514a

>  <exports>  (174) 
['/opt/xchem-fragalysis-2/maxwin/openbind-hippo/a71ev2a/cycle_01/bulkdock/openbind_a71ev2a_c1_elab_chemspace.sdf', '/opt/xchem-fragalysis-2/maxwin/openbind-hippo/a71ev2a/cycle_01/syndirella/elabs/ASAP-0031281-001_elabs.sdf']

>  <Energy>  (174) 
111.278627

>  <tags>  (174) 
fragmenstein_placed,a71ev2a_c1_elab_bulkdock_input

>  <GNINA pK>  (174) 
nan

$$$$
ZOJOFOTVOSNLED-UHFFFAOYSA-N-P126-P126-P183-601502
     RDKit          3D

 30 33  0  0  0  0  0  0  0  0999 V2000
    8.5072    8.8696   24.2306 C   0  0  0  0  0  0  0  0  0  0  0  0
    8.3436   10.1492   24.8604 N   0  0  0  0  0  0  0  0  0  0  0  0
    9.2814   11.0358   24.5919 N   0  0  0  0  0  0  0  0  0  0  0  0
    8.9802   12.1162   25.3322 C   0  0  0  0  0  0  0  0  0  0  0  0
    9.8655   13.2747   25.1431 C   0  0  0  0  0  0  0  0  0  0  0  0
    9.7691   14.3120   25.7311 O   0  0  0  0  0  0  0  0  0  0  0  0
   10.7219   12.8825   24.0893 N   0  0  0  0  0  0  0  0  0  0  0  0
   11.6060   13.5707   23.3819 C   0  0  0  0  0  0  0  0  0  0  0  0
   11.7960   13.1633   22.1605 N   0  0  0  0  0  0  0  0  0  0  0  0
   11.4857   14.3061   21.5158 C   0  0  0  0  0  0  0  0  0  0  0  0
   10.5131   14.3542   20.3590 C   0  0  0  0  0  0  0  0  0  0  0  0
    9.5733   15.4684   20.1001 C   0  0  0  0  0  0  0  0  0  0  0  0
    9.9138   15.3622   18.5567 N   0  0  0  0  0  0  0  0  0  0  0  0
    9.6860   16.5879   17.8998 C   0  0  0  0  0  0  0  0  0  0  0  0
   10.4172   17.5093   17.7087 O   0  0  0  0  0  0  0  0  0  0  0  0
    8.4176   16.6236   17.3208 O   0  0  0  0  0  0  0  0  0  0  0  0
    8.0557   17.8705   16.6202 C   0  0  0  0  0  0  0  0  0  0  0  0
    8.9177   18.2732   15.0625 C   0  0  0  0  0  0  0  0  0  0  0  0
    7.8980   18.6560   17.9753 C   0  0  0  0  0  0  0  0  0  0  0  0
    6.7431   17.8196   15.8548 C   0  0  0  0  0  0  0  0  0  0  0  0
   11.1479   14.7801   19.1229 C   0  0  0  0  0  0  0  0  0  0  0  0
   11.8784   15.3555   22.2787 C   0  0  0  0  0  0  0  0  0  0  0  0
   11.8028   14.8960   23.5711 O   0  0  0  0  0  0  0  0  0  0  0  0
    7.8058   11.9051   26.0819 C   0  0  0  0  0  0  0  0  0  0  0  0
    7.0352   12.6631   26.9780 C   0  0  0  0  0  0  0  0  0  0  0  0
    5.9080   12.0693   27.5392 C   0  0  0  0  0  0  0  0  0  0  0  0
    5.1687   12.7670   28.4124 F   0  0  0  0  0  0  0  0  0  0  0  0
    5.5321   10.7690   27.2259 C   0  0  0  0  0  0  0  0  0  0  0  0
    6.2730   10.0086   26.3181 C   0  0  0  0  0  0  0  0  0  0  0  0
    7.4132   10.5972   25.7612 C   0  0  0  0  0  0  0  0  0  0  0  0
  1  2  1  0
  2  3  1  0
  3  4  2  0
  4  5  1  0
  5  6  2  0
  5  7  1  0
  7  8  1  0
  8  9  2  0
  9 10  1  0
 10 11  1  0
 11 12  1  0
 12 13  1  0
 13 14  1  0
 14 15  2  0
 14 16  1  0
 16 17  1  0
 17 18  1  0
 17 19  1  0
 17 20  1  0
 13 21  1  0
 10 22  2  0
 22 23  1  0
  4 24  1  0
 24 25  2  0
 25 26  1  0
 26 27  1  0
 26 28  2  0
 28 29  1  0
 29 30  2  0
 30  2  1  0
 23  8  1  0
 30 24  1  0
 21 11  1  0
M  END
>  <energy_score>  (175) 
82.40896

>  <fragmenstein_runtime>  (175) 
13.000972

>  <HIPPO Pose ID>  (175) 
503494

>  <fragmenstein_error>  (175) 


>  <alias>  (175) 
ZOJOFOTVOSNLED-UHFFFAOYSA-N-P126-P126-P183-601502

>  <orig_smiles>  (175) 
Cn1nc(C(=O)Nc2nc(C3CN(C(=O)OC(C)(C)C)C3)co2)c2cc(F)ccc21

>  <smiles>  (175) 
Cn1nc(C(=O)Nc2nc(C3CN(C(=O)OC(C)(C)C)C3)co2)c2cc(F)ccc21

>  <inchikey>  (175) 
ZOJOFOTVOSNLED-UHFFFAOYSA-N

>  <HIPPO Compound ID>  (175) 
289882

>  <fragmenstein_mode>  (175) 
expansion

>  <fragmenstein_outcome>  (175) 
too moved

>  <distance_score>  (175) 
1.86567

>  <subsites>  (175) 
None

>  <scratch_subdir>  (175) 
/opt/xchem-fragalysis-2/maxwin/BulkDock/SCRATCH/601502/ZOJOFOTVOSNLED-UHFFFAOYSA-N-P126-P126-P183-601502

>  <inspiration_score>  (175) 
None

>  <name>  (175) 
ZOJOFOTVOSNLED-UHFFFAOYSA-N-P126-P126-P183-601502

>  <ref_mols>  (175) 
A2290a,A3436a

>  <ref_pdb>  (175) 
A0514a

>  <exports>  (175) 
['/opt/xchem-fragalysis-2/maxwin/openbind-hippo/a71ev2a/cycle_01/syndirella/elabs/ASAP-0031281-001_elabs.sdf']

>  <Energy>  (175) 
146.232223

>  <tags>  (175) 
fragmenstein_placed,a71ev2a_c1_elab_bulkdock_input

>  <GNINA pK>  (175) 
nan

$$$$
ZOJOFOTVOSNLED-UHFFFAOYSA-N-P183-P126-P183-601502
     RDKit          3D

 30 33  0  0  0  0  0  0  0  0999 V2000
    8.7851    8.9160   23.9524 C   0  0  0  0  0  0  0  0  0  0  0  0
    8.4657   10.2318   24.4502 N   0  0  0  0  0  0  0  0  0  0  0  0
    9.2431   11.2235   24.0305 N   0  0  0  0  0  0  0  0  0  0  0  0
    8.8438   12.2944   24.7383 C   0  0  0  0  0  0  0  0  0  0  0  0
    9.6421   13.5123   24.6222 C   0  0  0  0  0  0  0  0  0  0  0  0
    9.3340   14.5423   25.1420 O   0  0  0  0  0  0  0  0  0  0  0  0
   10.7007   13.1994   23.7438 N   0  0  0  0  0  0  0  0  0  0  0  0
   11.6119   13.9713   23.1659 C   0  0  0  0  0  0  0  0  0  0  0  0
   12.3273   13.5161   22.1799 N   0  0  0  0  0  0  0  0  0  0  0  0
   12.3217   14.5790   21.3261 C   0  0  0  0  0  0  0  0  0  0  0  0
   12.2081   14.2972   19.8106 C   0  0  0  0  0  0  0  0  0  0  0  0
   11.8010   15.2341   18.7050 C   0  0  0  0  0  0  0  0  0  0  0  0
   10.5199   15.3428   19.4713 N   0  0  0  0  0  0  0  0  0  0  0  0
    9.6131   16.0785   18.8107 C   0  0  0  0  0  0  0  0  0  0  0  0
    8.7799   15.7573   18.0203 O   0  0  0  0  0  0  0  0  0  0  0  0
    9.7614   17.3274   19.3087 O   0  0  0  0  0  0  0  0  0  0  0  0
    8.6046   17.6376   20.1044 C   0  0  0  0  0  0  0  0  0  0  0  0
    8.9167   18.6679   21.1404 C   0  0  0  0  0  0  0  0  0  0  0  0
    8.1637   16.4126   20.9848 C   0  0  0  0  0  0  0  0  0  0  0  0
    7.7141   18.3823   19.1322 C   0  0  0  0  0  0  0  0  0  0  0  0
   10.7286   13.9508   19.5291 C   0  0  0  0  0  0  0  0  0  0  0  0
   11.9637   15.7047   22.0092 C   0  0  0  0  0  0  0  0  0  0  0  0
   11.5185   15.3132   23.2434 O   0  0  0  0  0  0  0  0  0  0  0  0
    7.7071   12.0138   25.5175 C   0  0  0  0  0  0  0  0  0  0  0  0
    6.8755   12.7483   26.3829 C   0  0  0  0  0  0  0  0  0  0  0  0
    5.8847   12.0682   27.0816 C   0  0  0  0  0  0  0  0  0  0  0  0
    5.1057   12.7401   27.9397 F   0  0  0  0  0  0  0  0  0  0  0  0
    5.6986   10.7032   26.9270 C   0  0  0  0  0  0  0  0  0  0  0  0
    6.4916    9.9723   26.0383 C   0  0  0  0  0  0  0  0  0  0  0  0
    7.5113   10.6408   25.3543 C   0  0  0  0  0  0  0  0  0  0  0  0
  1  2  1  0
  2  3  1  0
  3  4  2  0
  4  5  1  0
  5  6  2  0
  5  7  1  0
  7  8  1  0
  8  9  2  0
  9 10  1  0
 10 11  1  0
 11 12  1  0
 12 13  1  0
 13 14  1  0
 14 15  2  0
 14 16  1  0
 16 17  1  0
 17 18  1  0
 17 19  1  0
 17 20  1  0
 13 21  1  0
 10 22  2  0
 22 23  1  0
  4 24  1  0
 24 25  2  0
 25 26  1  0
 26 27  1  0
 26 28  2  0
 28 29  1  0
 29 30  2  0
 30  2  1  0
 23  8  1  0
 30 24  1  0
 21 11  1  0
M  END
>  <energy_score>  (176) 
23.264782

>  <fragmenstein_runtime>  (176) 
24.960867

>  <HIPPO Pose ID>  (176) 
503495

>  <fragmenstein_error>  (176) 


>  <alias>  (176) 
ZOJOFOTVOSNLED-UHFFFAOYSA-N-P183-P126-P183-601502

>  <orig_smiles>  (176) 
Cn1nc(C(=O)Nc2nc(C3CN(C(=O)OC(C)(C)C)C3)co2)c2cc(F)ccc21

>  <smiles>  (176) 
Cn1nc(C(=O)Nc2nc(C3CN(C(=O)OC(C)(C)C)C3)co2)c2cc(F)ccc21

>  <inchikey>  (176) 
ZOJOFOTVOSNLED-UHFFFAOYSA-N

>  <HIPPO Compound ID>  (176) 
289882

>  <fragmenstein_mode>  (176) 
expansion

>  <fragmenstein_outcome>  (176) 
too moved

>  <distance_score>  (176) 
1.714367

>  <subsites>  (176) 
None

>  <scratch_subdir>  (176) 
/opt/xchem-fragalysis-2/maxwin/BulkDock/SCRATCH/601502/ZOJOFOTVOSNLED-UHFFFAOYSA-N-P183-P126-P183-601502

>  <inspiration_score>  (176) 
None

>  <name>  (176) 
ZOJOFOTVOSNLED-UHFFFAOYSA-N-P183-P126-P183-601502

>  <ref_mols>  (176) 
A2290a,A3436a

>  <ref_pdb>  (176) 
A0514a

>  <exports>  (176) 
['/opt/xchem-fragalysis-2/maxwin/openbind-hippo/a71ev2a/cycle_01/bulkdock/openbind_a71ev2a_c1_elab_chemspace.sdf', '/opt/xchem-fragalysis-2/maxwin/openbind-hippo/a71ev2a/cycle_01/syndirella/elabs/ASAP-0031281-001_elabs.sdf']

>  <Energy>  (176) 
87.088045

>  <tags>  (176) 
fragmenstein_placed,a71ev2a_c1_elab_bulkdock_input

>  <GNINA pK>  (176) 
nan

$$$$
RYDWFUWLWADDSJ-UHFFFAOYSA-N-P126-P126-P183-601502
     RDKit          3D

 30 33  0  0  0  0  0  0  0  0999 V2000
    9.2006    8.8307   23.2877 C   0  0  0  0  0  0  0  0  0  0  0  0
    9.0038   10.0657   24.0082 N   0  0  0  0  0  0  0  0  0  0  0  0
    9.8296   11.0828   23.7349 N   0  0  0  0  0  0  0  0  0  0  0  0
    9.4147   12.0754   24.5448 C   0  0  0  0  0  0  0  0  0  0  0  0
   10.1695   13.3225   24.6213 C   0  0  0  0  0  0  0  0  0  0  0  0
   10.0138   14.1139   25.4578 O   0  0  0  0  0  0  0  0  0  0  0  0
   11.1666   13.2823   23.4747 N   0  0  0  0  0  0  0  0  0  0  0  0
   12.2413   14.1462   23.1596 C   0  0  0  0  0  0  0  0  0  0  0  0
   12.6533   14.0747   21.7212 C   0  0  0  0  0  0  0  0  0  0  0  0
   11.6623   14.5580   20.7726 C   0  0  0  0  0  0  0  0  0  0  0  0
   11.7044   14.4071   19.4147 C   0  0  0  0  0  0  0  0  0  0  0  0
   10.6799   15.0898   18.8989 O   0  0  0  0  0  0  0  0  0  0  0  0
   10.1294   15.7083   19.9677 C   0  0  0  0  0  0  0  0  0  0  0  0
    9.3361   16.8395   19.6258 C   0  0  0  0  0  0  0  0  0  0  0  0
    9.1096   17.1618   18.2970 C   0  0  0  0  0  0  0  0  0  0  0  0
    8.2307   18.1561   17.9937 C   0  0  0  0  0  0  0  0  0  0  0  0
    7.7045   18.9115   19.0105 C   0  0  0  0  0  0  0  0  0  0  0  0
    6.7867   19.8185   18.7223 F   0  0  0  0  0  0  0  0  0  0  0  0
    8.0844   18.7453   20.3047 C   0  0  0  0  0  0  0  0  0  0  0  0
    8.8304   17.6486   20.6228 C   0  0  0  0  0  0  0  0  0  0  0  0
   10.6103   15.3472   21.1347 N   0  0  0  0  0  0  0  0  0  0  0  0
    8.2733   11.7163   25.2810 C   0  0  0  0  0  0  0  0  0  0  0  0
    7.4375   12.3746   26.2004 C   0  0  0  0  0  0  0  0  0  0  0  0
    6.3932   11.6424   26.7719 C   0  0  0  0  0  0  0  0  0  0  0  0
    5.4960   12.2964   27.7232 N   0  0  0  0  0  0  0  0  0  0  0  0
    5.9446   13.2565   28.3653 O   0  0  0  0  0  0  0  0  0  0  0  0
    4.3550   11.8281   27.8534 O   0  0  0  0  0  0  0  0  0  0  0  0
    6.2023   10.2924   26.4738 C   0  0  0  0  0  0  0  0  0  0  0  0
    7.0419    9.6467   25.5633 C   0  0  0  0  0  0  0  0  0  0  0  0
    8.0599   10.3801   24.9584 C   0  0  0  0  0  0  0  0  0  0  0  0
  1  2  1  0
  2  3  1  0
  3  4  2  0
  4  5  1  0
  5  6  2  0
  5  7  1  0
  7  8  1  0
  8  9  1  0
  9 10  1  0
 10 11  2  0
 11 12  1  0
 12 13  1  0
 13 14  1  0
 14 15  2  0
 15 16  1  0
 16 17  2  0
 17 18  1  0
 17 19  1  0
 19 20  2  0
 13 21  2  0
  4 22  1  0
 22 23  2  0
 23 24  1  0
 24 25  1  0
 25 26  2  0
 25 27  1  0
 24 28  2  0
 28 29  1  0
 29 30  2  0
 30  2  1  0
 21 10  1  0
 30 22  1  0
 20 14  1  0
M  CHG  2  25   1  27  -1
M  END
>  <energy_score>  (177) 
-19.805362

>  <fragmenstein_runtime>  (177) 
5.085386

>  <HIPPO Pose ID>  (177) 
503496

>  <fragmenstein_error>  (177) 


>  <alias>  (177) 
RYDWFUWLWADDSJ-UHFFFAOYSA-N-P126-P126-P183-601502

>  <orig_smiles>  (177) 
Cn1nc(C(=O)NCCc2coc(-c3ccc(F)cc3)n2)c2cc([N+](=O)[O-])ccc21

>  <smiles>  (177) 
Cn1nc(C(=O)NCCc2coc(-c3ccc(F)cc3)n2)c2cc([N+](=O)[O-])ccc21

>  <inchikey>  (177) 
RYDWFUWLWADDSJ-UHFFFAOYSA-N

>  <HIPPO Compound ID>  (177) 
289883

>  <fragmenstein_mode>  (177) 
expansion

>  <fragmenstein_outcome>  (177) 
acceptable

>  <distance_score>  (177) 
0.989644

>  <subsites>  (177) 
None

>  <scratch_subdir>  (177) 
/opt/xchem-fragalysis-2/maxwin/BulkDock/SCRATCH/601502/RYDWFUWLWADDSJ-UHFFFAOYSA-N-P126-P126-P183-601502

>  <inspiration_score>  (177) 
None

>  <name>  (177) 
RYDWFUWLWADDSJ-UHFFFAOYSA-N-P126-P126-P183-601502

>  <ref_mols>  (177) 
A2290a,A3436a

>  <ref_pdb>  (177) 
A0514a

>  <exports>  (177) 
['/opt/xchem-fragalysis-2/maxwin/openbind-hippo/a71ev2a/cycle_01/syndirella/elabs/openbind_a71ev2a_c1_elab_chemspace_filtered.sdf', '/opt/xchem-fragalysis-2/maxwin/BulkDock/OUTPUTS/a71ev2a_c1_elab_bulkdock_input_1GFT2LV.sdf', '/opt/xchem-fragalysis-2/maxwin/openbind-hippo/a71ev2a/cycle_01/syndirella/elabs/ASAP-0031281-001_elabs.sdf']

>  <Energy>  (177) 
136.340427

>  <tags>  (177) 
fragmenstein_placed,a71ev2a_c1_elab_bulkdock_input,BulkDock Fragalysis export,openbind_a71ev2a_c1_elabs_filtered

>  <GNINA pK>  (177) 
nan

$$$$
RYDWFUWLWADDSJ-UHFFFAOYSA-N-P183-P126-P183-601502
     RDKit          3D

 30 33  0  0  0  0  0  0  0  0999 V2000
    9.1084    8.9789   23.6982 C   0  0  0  0  0  0  0  0  0  0  0  0
    8.6671   10.2562   24.2140 N   0  0  0  0  0  0  0  0  0  0  0  0
    9.3571   11.3464   23.8559 N   0  0  0  0  0  0  0  0  0  0  0  0
    8.8061   12.3334   24.5916 C   0  0  0  0  0  0  0  0  0  0  0  0
    9.4832   13.6068   24.7603 C   0  0  0  0  0  0  0  0  0  0  0  0
    9.0030   14.5474   25.2393 O   0  0  0  0  0  0  0  0  0  0  0  0
   10.8996   13.3617   24.2804 N   0  0  0  0  0  0  0  0  0  0  0  0
   12.0016   14.2338   24.1960 C   0  0  0  0  0  0  0  0  0  0  0  0
   12.5653   14.2157   22.8008 C   0  0  0  0  0  0  0  0  0  0  0  0
   11.6965   14.7099   21.7534 C   0  0  0  0  0  0  0  0  0  0  0  0
   11.7851   14.4730   20.4110 C   0  0  0  0  0  0  0  0  0  0  0  0
   10.8314   15.2040   19.8235 O   0  0  0  0  0  0  0  0  0  0  0  0
   10.2562   15.9027   20.8590 C   0  0  0  0  0  0  0  0  0  0  0  0
    9.3809   16.9315   20.4201 C   0  0  0  0  0  0  0  0  0  0  0  0
    8.9612   16.7968   19.1495 C   0  0  0  0  0  0  0  0  0  0  0  0
    8.1343   17.7524   18.6189 C   0  0  0  0  0  0  0  0  0  0  0  0
    7.8134   18.9174   19.2084 C   0  0  0  0  0  0  0  0  0  0  0  0
    7.1144   19.8290   18.5485 F   0  0  0  0  0  0  0  0  0  0  0  0
    8.3192   19.1152   20.4328 C   0  0  0  0  0  0  0  0  0  0  0  0
    9.0436   18.1089   21.0540 C   0  0  0  0  0  0  0  0  0  0  0  0
   10.6996   15.5819   22.0393 N   0  0  0  0  0  0  0  0  0  0  0  0
    7.6980   11.9061   25.3279 C   0  0  0  0  0  0  0  0  0  0  0  0
    6.8135   12.5276   26.2262 C   0  0  0  0  0  0  0  0  0  0  0  0
    5.8911   11.7210   26.8907 C   0  0  0  0  0  0  0  0  0  0  0  0
    4.9579   12.3280   27.8367 N   0  0  0  0  0  0  0  0  0  0  0  0
    5.3303   13.3493   28.4305 O   0  0  0  0  0  0  0  0  0  0  0  0
    3.8694   11.7608   28.0138 O   0  0  0  0  0  0  0  0  0  0  0  0
    5.8532   10.3433   26.6845 C   0  0  0  0  0  0  0  0  0  0  0  0
    6.7339    9.7420   25.7829 C   0  0  0  0  0  0  0  0  0  0  0  0
    7.6691   10.5339   25.1236 C   0  0  0  0  0  0  0  0  0  0  0  0
  1  2  1  0
  2  3  1  0
  3  4  2  0
  4  5  1  0
  5  6  2  0
  5  7  1  0
  7  8  1  0
  8  9  1  0
  9 10  1  0
 10 11  2  0
 11 12  1  0
 12 13  1  0
 13 14  1  0
 14 15  2  0
 15 16  1  0
 16 17  2  0
 17 18  1  0
 17 19  1  0
 19 20  2  0
 13 21  2  0
  4 22  1  0
 22 23  2  0
 23 24  1  0
 24 25  1  0
 25 26  2  0
 25 27  1  0
 24 28  2  0
 28 29  1  0
 29 30  2  0
 30  2  1  0
 21 10  1  0
 30 22  1  0
 20 14  1  0
M  CHG  2  25   1  27  -1
M  END
>  <energy_score>  (178) 
-6.270354

>  <fragmenstein_runtime>  (178) 
6.855377

>  <HIPPO Pose ID>  (178) 
503497

>  <fragmenstein_error>  (178) 


>  <alias>  (178) 
RYDWFUWLWADDSJ-UHFFFAOYSA-N-P183-P126-P183-601502

>  <orig_smiles>  (178) 
Cn1nc(C(=O)NCCc2coc(-c3ccc(F)cc3)n2)c2cc([N+](=O)[O-])ccc21

>  <smiles>  (178) 
Cn1nc(C(=O)NCCc2coc(-c3ccc(F)cc3)n2)c2cc([N+](=O)[O-])ccc21

>  <inchikey>  (178) 
RYDWFUWLWADDSJ-UHFFFAOYSA-N

>  <HIPPO Compound ID>  (178) 
289883

>  <fragmenstein_mode>  (178) 
expansion

>  <fragmenstein_outcome>  (178) 
too moved

>  <distance_score>  (178) 
1.436358

>  <subsites>  (178) 
None

>  <scratch_subdir>  (178) 
/opt/xchem-fragalysis-2/maxwin/BulkDock/SCRATCH/601502/RYDWFUWLWADDSJ-UHFFFAOYSA-N-P183-P126-P183-601502

>  <inspiration_score>  (178) 
None

>  <name>  (178) 
RYDWFUWLWADDSJ-UHFFFAOYSA-N-P183-P126-P183-601502

>  <ref_mols>  (178) 
A2290a,A3436a

>  <ref_pdb>  (178) 
A0514a

>  <exports>  (178) 
['/opt/xchem-fragalysis-2/maxwin/openbind-hippo/a71ev2a/cycle_01/syndirella/elabs/openbind_a71ev2a_c1_elab_chemspace_filtered.sdf', '/opt/xchem-fragalysis-2/maxwin/openbind-hippo/a71ev2a/cycle_01/syndirella/elabs/ASAP-0031281-001_elabs.sdf']

>  <Energy>  (178) 
149.875434

>  <tags>  (178) 
fragmenstein_placed,openbind_a71ev2a_c1_elabs_filtered,a71ev2a_c1_elab_bulkdock_input

>  <GNINA pK>  (178) 
nan

$$$$
AZWBDCLHCRWDLJ-UHFFFAOYSA-N-P126-P126-P183-601502
     RDKit          3D

 30 34  0  0  0  0  0  0  0  0999 V2000
    8.7930    8.7871   23.9828 C   0  0  0  0  0  0  0  0  0  0  0  0
    8.6314   10.0971   24.5502 N   0  0  0  0  0  0  0  0  0  0  0  0
    9.5609   10.9867   24.2566 N   0  0  0  0  0  0  0  0  0  0  0  0
    9.2021   12.1070   24.9011 C   0  0  0  0  0  0  0  0  0  0  0  0
   10.0236   13.3139   24.7409 C   0  0  0  0  0  0  0  0  0  0  0  0
    9.9588   14.2526   25.4739 O   0  0  0  0  0  0  0  0  0  0  0  0
   10.7812   13.1035   23.5571 N   0  0  0  0  0  0  0  0  0  0  0  0
   12.2242   14.2181   22.7333 C   0  0  0  0  0  0  0  0  0  0  0  0
   12.6753   14.0513   20.9661 C   0  0  0  0  0  0  0  0  0  0  0  0
   11.3734   14.2733   20.3712 C   0  0  0  0  0  0  0  0  0  0  0  0
   10.9794   15.1295   19.4446 N   0  0  0  0  0  0  0  0  0  0  0  0
    9.9446   15.6857   20.0457 C   0  0  0  0  0  0  0  0  0  0  0  0
    9.2852   16.8861   19.6667 C   0  0  0  0  0  0  0  0  0  0  0  0
    8.7446   17.7342   20.6153 C   0  0  0  0  0  0  0  0  0  0  0  0
    8.0129   18.8140   20.2205 C   0  0  0  0  0  0  0  0  0  0  0  0
    7.6625   18.9230   18.9078 C   0  0  0  0  0  0  0  0  0  0  0  0
    8.2535   18.1291   17.9474 C   0  0  0  0  0  0  0  0  0  0  0  0
    9.1461   17.1672   18.3236 C   0  0  0  0  0  0  0  0  0  0  0  0
    9.5687   15.1491   21.2597 O   0  0  0  0  0  0  0  0  0  0  0  0
   10.4784   14.1683   21.3849 C   0  0  0  0  0  0  0  0  0  0  0  0
   11.4888   13.8880   22.8815 C   0  0  0  0  0  0  0  0  0  0  0  0
    8.0185   11.8998   25.6519 C   0  0  0  0  0  0  0  0  0  0  0  0
    7.2015   12.6927   26.4788 C   0  0  0  0  0  0  0  0  0  0  0  0
    6.0707   12.0937   27.0519 C   0  0  0  0  0  0  0  0  0  0  0  0
    5.1915   12.8956   27.9020 N   0  0  0  0  0  0  0  0  0  0  0  0
    4.0059   12.5416   27.9932 O   0  0  0  0  0  0  0  0  0  0  0  0
    5.6935   13.8578   28.4990 O   0  0  0  0  0  0  0  0  0  0  0  0
    5.7599   10.7471   26.8373 C   0  0  0  0  0  0  0  0  0  0  0  0
    6.5621    9.9617   26.0082 C   0  0  0  0  0  0  0  0  0  0  0  0
    7.6800   10.5630   25.4211 C   0  0  0  0  0  0  0  0  0  0  0  0
  1  2  1  0
  2  3  1  0
  3  4  2  0
  4  5  1  0
  5  6  2  0
  5  7  1  0
  7  8  1  0
  8  9  1  0
  9 10  1  0
 10 11  1  0
 11 12  2  0
 12 13  1  0
 13 14  2  0
 14 15  1  0
 15 16  2  0
 16 17  1  0
 17 18  2  0
 12 19  1  0
 19 20  1  0
 20 21  1  0
  4 22  1  0
 22 23  2  0
 23 24  1  0
 24 25  1  0
 25 26  2  0
 25 27  1  0
 24 28  2  0
 28 29  1  0
 29 30  2  0
 30  2  1  0
 21  7  1  0
 30 22  1  0
 20 10  2  0
 18 13  1  0
M  CHG  2  25   1  27  -1
M  END
>  <energy_score>  (179) 
836.882488

>  <fragmenstein_runtime>  (179) 
15.869012

>  <HIPPO Pose ID>  (179) 
503498

>  <fragmenstein_error>  (179) 


>  <alias>  (179) 
AZWBDCLHCRWDLJ-UHFFFAOYSA-N-P126-P126-P183-601502

>  <orig_smiles>  (179) 
Cn1nc(C(=O)N2CCc3nc(-c4ccccc4)oc3C2)c2cc([N+](=O)[O-])ccc21

>  <smiles>  (179) 
Cn1nc(C(=O)N2CCc3nc(-c4ccccc4)oc3C2)c2cc([N+](=O)[O-])ccc21

>  <inchikey>  (179) 
AZWBDCLHCRWDLJ-UHFFFAOYSA-N

>  <HIPPO Compound ID>  (179) 
289884

>  <fragmenstein_mode>  (179) 
expansion

>  <fragmenstein_outcome>  (179) 
too moved

>  <distance_score>  (179) 
1.239978

>  <subsites>  (179) 
None

>  <scratch_subdir>  (179) 
/opt/xchem-fragalysis-2/maxwin/BulkDock/SCRATCH/601502/AZWBDCLHCRWDLJ-UHFFFAOYSA-N-P126-P126-P183-601502

>  <inspiration_score>  (179) 
None

>  <name>  (179) 
AZWBDCLHCRWDLJ-UHFFFAOYSA-N-P126-P126-P183-601502

>  <ref_mols>  (179) 
A2290a,A3436a

>  <ref_pdb>  (179) 
A0514a

>  <exports>  (179) 
['/opt/xchem-fragalysis-2/maxwin/openbind-hippo/a71ev2a/cycle_01/bulkdock/openbind_a71ev2a_c1_elab_chemspace.sdf', '/opt/xchem-fragalysis-2/maxwin/openbind-hippo/a71ev2a/cycle_01/syndirella/elabs/ASAP-0031281-001_elabs.sdf']

>  <Energy>  (179) 
1009.634711

>  <tags>  (179) 
fragmenstein_placed,a71ev2a_c1_elab_bulkdock_input

>  <GNINA pK>  (179) 
nan

$$$$
AZWBDCLHCRWDLJ-UHFFFAOYSA-N-P183-P126-P183-601502
     RDKit          3D

 30 34  0  0  0  0  0  0  0  0999 V2000
    8.6567    9.0170   24.1217 C   0  0  0  0  0  0  0  0  0  0  0  0
    8.1891   10.3405   24.4522 N   0  0  0  0  0  0  0  0  0  0  0  0
    8.6473   11.3034   23.6773 N   0  0  0  0  0  0  0  0  0  0  0  0
    8.2025   12.4391   24.2310 C   0  0  0  0  0  0  0  0  0  0  0  0
    8.9792   13.5863   23.8542 C   0  0  0  0  0  0  0  0  0  0  0  0
    8.7136   14.3844   23.0718 O   0  0  0  0  0  0  0  0  0  0  0  0
   10.2291   13.3369   24.7063 N   0  0  0  0  0  0  0  0  0  0  0  0
   11.4036   13.8258   24.7787 C   0  0  0  0  0  0  0  0  0  0  0  0
   11.9709   12.7535   23.3943 C   0  0  0  0  0  0  0  0  0  0  0  0
   12.3236   13.7918   22.4454 C   0  0  0  0  0  0  0  0  0  0  0  0
   11.9066   14.0060   21.1929 N   0  0  0  0  0  0  0  0  0  0  0  0
   11.4632   15.2461   21.2794 C   0  0  0  0  0  0  0  0  0  0  0  0
   10.4750   15.8973   20.4805 C   0  0  0  0  0  0  0  0  0  0  0  0
    9.9156   17.1262   20.8670 C   0  0  0  0  0  0  0  0  0  0  0  0
    8.9262   17.8030   20.2267 C   0  0  0  0  0  0  0  0  0  0  0  0
    8.6083   17.2716   19.0378 C   0  0  0  0  0  0  0  0  0  0  0  0
    9.1460   16.0220   18.6048 C   0  0  0  0  0  0  0  0  0  0  0  0
   10.0952   15.3366   19.3048 C   0  0  0  0  0  0  0  0  0  0  0  0
   11.7712   15.8998   22.4407 O   0  0  0  0  0  0  0  0  0  0  0  0
   12.2930   14.9245   23.1714 C   0  0  0  0  0  0  0  0  0  0  0  0
   11.7479   14.5848   24.7584 C   0  0  0  0  0  0  0  0  0  0  0  0
    7.3278   12.1929   25.3011 C   0  0  0  0  0  0  0  0  0  0  0  0
    6.5989   12.9825   26.2062 C   0  0  0  0  0  0  0  0  0  0  0  0
    5.7600   12.3217   27.1123 C   0  0  0  0  0  0  0  0  0  0  0  0
    4.9570   13.1130   28.0418 N   0  0  0  0  0  0  0  0  0  0  0  0
    3.8924   12.6191   28.4410 O   0  0  0  0  0  0  0  0  0  0  0  0
    5.4112   14.2098   28.3959 O   0  0  0  0  0  0  0  0  0  0  0  0
    5.6592   10.9275   27.1445 C   0  0  0  0  0  0  0  0  0  0  0  0
    6.4210   10.1453   26.2729 C   0  0  0  0  0  0  0  0  0  0  0  0
    7.2863   10.7936   25.3884 C   0  0  0  0  0  0  0  0  0  0  0  0
  1  2  1  0
  2  3  1  0
  3  4  2  0
  4  5  1  0
  5  6  2  0
  5  7  1  0
  7  8  1  0
  8  9  1  0
  9 10  1  0
 10 11  1  0
 11 12  2  0
 12 13  1  0
 13 14  2  0
 14 15  1  0
 15 16  2  0
 16 17  1  0
 17 18  2  0
 12 19  1  0
 19 20  1  0
 20 21  1  0
  4 22  1  0
 22 23  2  0
 23 24  1  0
 24 25  1  0
 25 26  2  0
 25 27  1  0
 24 28  2  0
 28 29  1  0
 29 30  2  0
 30  2  1  0
 21  7  1  0
 30 22  1  0
 20 10  2  0
 18 13  1  0
M  CHG  2  25   1  27  -1
M  END
>  <energy_score>  (180) 
811.345302

>  <fragmenstein_runtime>  (180) 
17.971783

>  <HIPPO Pose ID>  (180) 
503499

>  <fragmenstein_error>  (180) 


>  <alias>  (180) 
AZWBDCLHCRWDLJ-UHFFFAOYSA-N-P183-P126-P183-601502

>  <orig_smiles>  (180) 
Cn1nc(C(=O)N2CCc3nc(-c4ccccc4)oc3C2)c2cc([N+](=O)[O-])ccc21

>  <smiles>  (180) 
Cn1nc(C(=O)N2CCc3nc(-c4ccccc4)oc3C2)c2cc([N+](=O)[O-])ccc21

>  <inchikey>  (180) 
AZWBDCLHCRWDLJ-UHFFFAOYSA-N

>  <HIPPO Compound ID>  (180) 
289884

>  <fragmenstein_mode>  (180) 
expansion

>  <fragmenstein_outcome>  (180) 
too moved

>  <distance_score>  (180) 
2.210559

>  <subsites>  (180) 
None

>  <scratch_subdir>  (180) 
/opt/xchem-fragalysis-2/maxwin/BulkDock/SCRATCH/601502/AZWBDCLHCRWDLJ-UHFFFAOYSA-N-P183-P126-P183-601502

>  <inspiration_score>  (180) 
None

>  <name>  (180) 
AZWBDCLHCRWDLJ-UHFFFAOYSA-N-P183-P126-P183-601502

>  <ref_mols>  (180) 
A2290a,A3436a

>  <ref_pdb>  (180) 
A0514a

>  <exports>  (180) 
['/opt/xchem-fragalysis-2/maxwin/openbind-hippo/a71ev2a/cycle_01/syndirella/elabs/ASAP-0031281-001_elabs.sdf']

>  <Energy>  (180) 
984.097525

>  <tags>  (180) 
fragmenstein_placed,a71ev2a_c1_elab_bulkdock_input

>  <GNINA pK>  (180) 
nan

$$$$
IAHYIZYCEDBICE-UHFFFAOYSA-N-P126-P126-P183-601502
     RDKit          3D

 30 32  0  0  0  0  0  0  0  0999 V2000
    8.1223    8.9387   24.6531 C   0  0  0  0  0  0  0  0  0  0  0  0
    7.3357   10.1187   24.8594 N   0  0  0  0  0  0  0  0  0  0  0  0
    7.5036   11.0874   23.9500 N   0  0  0  0  0  0  0  0  0  0  0  0
    7.7091   12.1274   24.7535 C   0  0  0  0  0  0  0  0  0  0  0  0
    9.1411   12.1736   24.8831 C   0  0  0  0  0  0  0  0  0  0  0  0
    9.5660   11.5219   25.7820 O   0  0  0  0  0  0  0  0  0  0  0  0
    9.8027   12.8960   23.8816 N   0  0  0  0  0  0  0  0  0  0  0  0
   11.1853   13.0003   23.5676 C   0  0  1  0  0  0  0  0  0  0  0  0
   11.6693   13.9862   22.5092 C   0  0  0  0  0  0  0  0  0  0  0  0
   10.6425   14.4907   21.5809 C   0  0  0  0  0  0  0  0  0  0  0  0
   10.7274   14.7967   20.2440 C   0  0  0  0  0  0  0  0  0  0  0  0
    9.6189   15.5146   19.9160 O   0  0  0  0  0  0  0  0  0  0  0  0
    8.9119   15.5629   21.0706 C   0  0  0  0  0  0  0  0  0  0  0  0
    9.4171   14.8692   22.0635 N   0  0  0  0  0  0  0  0  0  0  0  0
   11.8746   13.2430   24.9090 C   0  0  0  0  0  0  0  0  0  0  0  0
   13.0961   13.2611   24.9847 O   0  0  0  0  0  0  0  0  0  0  0  0
   11.0573   13.3346   26.0172 O   0  0  0  0  0  0  0  0  0  0  0  0
   10.7209   14.4886   26.8167 C   0  0  0  0  0  0  0  0  0  0  0  0
   10.5532   14.3404   28.3561 C   0  0  0  0  0  0  0  0  0  0  0  0
    9.3762   15.0367   26.3718 C   0  0  0  0  0  0  0  0  0  0  0  0
   11.9152   15.3356   26.6986 C   0  0  0  0  0  0  0  0  0  0  0  0
    6.8105   11.9785   25.8590 C   0  0  0  0  0  0  0  0  0  0  0  0
    6.2853   12.8100   26.8596 C   0  0  0  0  0  0  0  0  0  0  0  0
    5.5643   12.2053   27.8986 C   0  0  0  0  0  0  0  0  0  0  0  0
    5.0028   13.0499   28.9547 N   0  0  0  0  0  0  0  0  0  0  0  0
    4.0606   12.5920   29.6166 O   0  0  0  0  0  0  0  0  0  0  0  0
    5.5181   14.1630   29.1326 O   0  0  0  0  0  0  0  0  0  0  0  0
    5.3912   10.8175   27.9697 C   0  0  0  0  0  0  0  0  0  0  0  0
    5.9417    9.9808   26.9950 C   0  0  0  0  0  0  0  0  0  0  0  0
    6.6379   10.5864   25.9494 C   0  0  0  0  0  0  0  0  0  0  0  0
  1  2  1  0
  2  3  1  0
  3  4  2  0
  4  5  1  0
  5  6  2  0
  5  7  1  0
  7  8  1  0
  8  9  1  6
  9 10  1  0
 10 11  2  0
 11 12  1  0
 12 13  1  0
 13 14  2  0
  8 15  1  0
 15 16  2  0
 15 17  1  0
 17 18  1  0
 18 19  1  0
 18 20  1  0
 18 21  1  0
  4 22  1  0
 22 23  2  0
 23 24  1  0
 24 25  1  0
 25 26  2  0
 25 27  1  0
 24 28  2  0
 28 29  1  0
 29 30  2  0
 30  2  1  0
 14 10  1  0
 30 22  1  0
M  CHG  2  25   1  27  -1
M  END
>  <energy_score>  (181) 
29.196575

>  <fragmenstein_runtime>  (181) 
10.308927

>  <HIPPO Pose ID>  (181) 
503500

>  <fragmenstein_error>  (181) 


>  <alias>  (181) 
IAHYIZYCEDBICE-UHFFFAOYSA-N-P126-P126-P183-601502

>  <orig_smiles>  (181) 
Cn1nc(C(=O)NC(Cc2cocn2)C(=O)OC(C)(C)C)c2cc([N+](=O)[O-])ccc21

>  <smiles>  (181) 
Cn1nc(C(=O)NC(Cc2cocn2)C(=O)OC(C)(C)C)c2cc([N+](=O)[O-])ccc21

>  <inchikey>  (181) 
IAHYIZYCEDBICE-UHFFFAOYSA-N

>  <HIPPO Compound ID>  (181) 
289885

>  <fragmenstein_mode>  (181) 
expansion

>  <fragmenstein_outcome>  (181) 
too moved

>  <distance_score>  (181) 
2.050113

>  <subsites>  (181) 
None

>  <scratch_subdir>  (181) 
/opt/xchem-fragalysis-2/maxwin/BulkDock/SCRATCH/601502/IAHYIZYCEDBICE-UHFFFAOYSA-N-P126-P126-P183-601502

>  <inspiration_score>  (181) 
None

>  <name>  (181) 
IAHYIZYCEDBICE-UHFFFAOYSA-N-P126-P126-P183-601502

>  <ref_mols>  (181) 
A2290a,A3436a

>  <ref_pdb>  (181) 
A0514a

>  <exports>  (181) 
['/opt/xchem-fragalysis-2/maxwin/openbind-hippo/a71ev2a/cycle_01/syndirella/elabs/ASAP-0031281-001_elabs.sdf']

>  <Energy>  (181) 
233.036837

>  <tags>  (181) 
fragmenstein_placed,a71ev2a_c1_elab_bulkdock_input

>  <GNINA pK>  (181) 
nan

$$$$
IAHYIZYCEDBICE-UHFFFAOYSA-N-P183-P126-P183-601502
     RDKit          3D

 30 32  0  0  0  0  0  0  0  0999 V2000
    5.9791    9.6099   26.5050 C   0  0  0  0  0  0  0  0  0  0  0  0
    6.2834   11.0015   26.6630 N   0  0  0  0  0  0  0  0  0  0  0  0
    7.0683   11.5935   25.7605 N   0  0  0  0  0  0  0  0  0  0  0  0
    7.0449   12.8928   26.1274 C   0  0  0  0  0  0  0  0  0  0  0  0
    7.6030   13.9157   25.2338 C   0  0  0  0  0  0  0  0  0  0  0  0
    7.8239   15.0289   25.6066 O   0  0  0  0  0  0  0  0  0  0  0  0
    7.7436   13.3217   23.9580 N   0  0  0  0  0  0  0  0  0  0  0  0
    8.1033   13.8859   22.6927 C   0  0  1  0  0  0  0  0  0  0  0  0
    7.2496   15.0716   22.2836 C   0  0  0  0  0  0  0  0  0  0  0  0
    5.8383   14.7259   22.0391 C   0  0  0  0  0  0  0  0  0  0  0  0
    4.7173   15.4370   22.3865 C   0  0  0  0  0  0  0  0  0  0  0  0
    3.6412   14.8206   21.8307 O   0  0  0  0  0  0  0  0  0  0  0  0
    4.1778   13.7326   21.2149 C   0  0  0  0  0  0  0  0  0  0  0  0
    5.4851   13.6291   21.2945 N   0  0  0  0  0  0  0  0  0  0  0  0
    9.5774   14.2189   22.6276 C   0  0  0  0  0  0  0  0  0  0  0  0
   10.2824   14.5049   23.5860 O   0  0  0  0  0  0  0  0  0  0  0  0
    9.9418   14.2067   21.3165 O   0  0  0  0  0  0  0  0  0  0  0  0
   10.8613   15.2066   20.8325 C   0  0  0  0  0  0  0  0  0  0  0  0
   12.1309   15.2732   21.6841 C   0  0  0  0  0  0  0  0  0  0  0  0
   10.0549   16.5139   20.7650 C   0  0  0  0  0  0  0  0  0  0  0  0
   11.2644   14.7678   19.4189 C   0  0  0  0  0  0  0  0  0  0  0  0
    6.4211   13.0656   27.3851 C   0  0  0  0  0  0  0  0  0  0  0  0
    6.1955   14.1474   28.2523 C   0  0  0  0  0  0  0  0  0  0  0  0
    5.4892   13.9001   29.4379 C   0  0  0  0  0  0  0  0  0  0  0  0
    5.2642   15.0037   30.3787 N   0  0  0  0  0  0  0  0  0  0  0  0
    5.9678   16.0157   30.2571 O   0  0  0  0  0  0  0  0  0  0  0  0
    4.3969   14.8466   31.2498 O   0  0  0  0  0  0  0  0  0  0  0  0
    4.9990   12.6245   29.7495 C   0  0  0  0  0  0  0  0  0  0  0  0
    5.2038   11.5502   28.8811 C   0  0  0  0  0  0  0  0  0  0  0  0
    5.9237   11.8062   27.7097 C   0  0  0  0  0  0  0  0  0  0  0  0
  1  2  1  0
  2  3  1  0
  3  4  2  0
  4  5  1  0
  5  6  2  0
  5  7  1  0
  7  8  1  0
  8  9  1  1
  9 10  1  0
 10 11  2  0
 11 12  1  0
 12 13  1  0
 13 14  2  0
  8 15  1  0
 15 16  2  0
 15 17  1  0
 17 18  1  0
 18 19  1  0
 18 20  1  0
 18 21  1  0
  4 22  1  0
 22 23  2  0
 23 24  1  0
 24 25  1  0
 25 26  2  0
 25 27  1  0
 24 28  2  0
 28 29  1  0
 29 30  2  0
 30  2  1  0
 14 10  1  0
 30 22  1  0
M  CHG  2  25   1  27  -1
M  END
>  <energy_score>  (182) 
-75.825529

>  <fragmenstein_runtime>  (182) 
23.792785

>  <HIPPO Pose ID>  (182) 
503501

>  <fragmenstein_error>  (182) 


>  <alias>  (182) 
IAHYIZYCEDBICE-UHFFFAOYSA-N-P183-P126-P183-601502

>  <orig_smiles>  (182) 
Cn1nc(C(=O)NC(Cc2cocn2)C(=O)OC(C)(C)C)c2cc([N+](=O)[O-])ccc21

>  <smiles>  (182) 
Cn1nc(C(=O)NC(Cc2cocn2)C(=O)OC(C)(C)C)c2cc([N+](=O)[O-])ccc21

>  <inchikey>  (182) 
IAHYIZYCEDBICE-UHFFFAOYSA-N

>  <HIPPO Compound ID>  (182) 
289885

>  <fragmenstein_mode>  (182) 
expansion

>  <fragmenstein_outcome>  (182) 
too moved

>  <distance_score>  (182) 
4.628768

>  <subsites>  (182) 
None

>  <scratch_subdir>  (182) 
/opt/xchem-fragalysis-2/maxwin/BulkDock/SCRATCH/601502/IAHYIZYCEDBICE-UHFFFAOYSA-N-P183-P126-P183-601502

>  <inspiration_score>  (182) 
None

>  <name>  (182) 
IAHYIZYCEDBICE-UHFFFAOYSA-N-P183-P126-P183-601502

>  <ref_mols>  (182) 
A2290a,A3436a

>  <ref_pdb>  (182) 
A0514a

>  <exports>  (182) 
['/opt/xchem-fragalysis-2/maxwin/openbind-hippo/a71ev2a/cycle_01/syndirella/elabs/ASAP-0031281-001_elabs.sdf']

>  <Energy>  (182) 
128.014733

>  <tags>  (182) 
fragmenstein_placed,a71ev2a_c1_elab_bulkdock_input

>  <GNINA pK>  (182) 
nan

$$$$
GMVALWIXUGOHHG-UHFFFAOYSA-N-P126-P126-P183-601502
     RDKit          3D

 30 33  0  0  0  0  0  0  0  0999 V2000
    7.2236   19.3045   19.6675 C   0  0  0  0  0  0  0  0  0  0  0  0
    8.3156   18.3515   19.6937 C   0  0  0  0  0  0  0  0  0  0  0  0
    8.8399   17.8990   18.5069 C   0  0  0  0  0  0  0  0  0  0  0  0
    9.6692   16.8195   18.5298 C   0  0  0  0  0  0  0  0  0  0  0  0
    9.6968   16.0502   19.6748 C   0  0  0  0  0  0  0  0  0  0  0  0
   10.5351   14.9341   19.8903 C   0  0  0  0  0  0  0  0  0  0  0  0
   10.7457   14.4417   21.0891 N   0  0  0  0  0  0  0  0  0  0  0  0
   12.0458   14.1286   21.0276 C   0  0  0  0  0  0  0  0  0  0  0  0
   12.8032   13.8497   22.2314 C   0  0  0  0  0  0  0  0  0  0  0  0
   12.0960   14.1498   23.5174 C   0  0  0  0  0  0  0  0  0  0  0  0
   10.9955   13.3100   23.7556 N   0  0  0  0  0  0  0  0  0  0  0  0
    9.9217   13.3717   24.8219 C   0  0  0  0  0  0  0  0  0  0  0  0
    9.7173   14.1692   25.6400 O   0  0  0  0  0  0  0  0  0  0  0  0
    9.1917   12.1172   24.6981 C   0  0  0  0  0  0  0  0  0  0  0  0
    9.6424   11.1541   23.8709 N   0  0  0  0  0  0  0  0  0  0  0  0
    8.8483   10.1091   24.1135 N   0  0  0  0  0  0  0  0  0  0  0  0
    9.1059    8.8963   23.3750 C   0  0  0  0  0  0  0  0  0  0  0  0
    7.8885   10.3787   25.0609 C   0  0  0  0  0  0  0  0  0  0  0  0
    6.8827    9.6125   25.6391 C   0  0  0  0  0  0  0  0  0  0  0  0
    6.0295   10.2132   26.5673 C   0  0  0  0  0  0  0  0  0  0  0  0
    6.1918   11.5564   26.9070 C   0  0  0  0  0  0  0  0  0  0  0  0
    5.2824   12.1612   27.8786 N   0  0  0  0  0  0  0  0  0  0  0  0
    5.7166   13.1000   28.5605 O   0  0  0  0  0  0  0  0  0  0  0  0
    4.1465   11.6746   27.9823 O   0  0  0  0  0  0  0  0  0  0  0  0
    7.2168   12.3269   26.3564 C   0  0  0  0  0  0  0  0  0  0  0  0
    8.0631   11.7115   25.4192 C   0  0  0  0  0  0  0  0  0  0  0  0
   12.4611   14.1531   19.7282 C   0  0  0  0  0  0  0  0  0  0  0  0
   11.4810   14.6731   18.9634 O   0  0  0  0  0  0  0  0  0  0  0  0
    9.0545   16.4565   20.8297 C   0  0  0  0  0  0  0  0  0  0  0  0
    8.5084   17.6907   20.8848 C   0  0  0  0  0  0  0  0  0  0  0  0
  1  2  1  0
  2  3  2  0
  3  4  1  0
  4  5  2  0
  5  6  1  0
  6  7  2  0
  7  8  1  0
  8  9  1  0
  9 10  1  0
 10 11  1  0
 11 12  1  0
 12 13  2  0
 12 14  1  0
 14 15  2  0
 15 16  1  0
 16 17  1  0
 16 18  1  0
 18 19  2  0
 19 20  1  0
 20 21  2  0
 21 22  1  0
 22 23  2  0
 22 24  1  0
 21 25  1  0
 25 26  2  0
  8 27  2  0
 27 28  1  0
  5 29  1  0
 29 30  2  0
 30  2  1  0
 28  6  1  0
 26 14  1  0
 26 18  1  0
M  CHG  2  22   1  24  -1
M  END
>  <energy_score>  (183) 
-5.730691

>  <fragmenstein_runtime>  (183) 
7.665058

>  <HIPPO Pose ID>  (183) 
503502

>  <fragmenstein_error>  (183) 


>  <alias>  (183) 
GMVALWIXUGOHHG-UHFFFAOYSA-N-P126-P126-P183-601502

>  <orig_smiles>  (183) 
Cc1ccc(-c2nc(CCNC(=O)c3nn(C)c4ccc([N+](=O)[O-])cc34)co2)cc1

>  <smiles>  (183) 
Cc1ccc(-c2nc(CCNC(=O)c3nn(C)c4ccc([N+](=O)[O-])cc34)co2)cc1

>  <inchikey>  (183) 
GMVALWIXUGOHHG-UHFFFAOYSA-N

>  <HIPPO Compound ID>  (183) 
289886

>  <fragmenstein_mode>  (183) 
expansion

>  <fragmenstein_outcome>  (183) 
too moved

>  <distance_score>  (183) 
1.445808

>  <subsites>  (183) 
None

>  <scratch_subdir>  (183) 
/opt/xchem-fragalysis-2/maxwin/BulkDock/SCRATCH/601502/GMVALWIXUGOHHG-UHFFFAOYSA-N-P126-P126-P183-601502

>  <inspiration_score>  (183) 
None

>  <name>  (183) 
GMVALWIXUGOHHG-UHFFFAOYSA-N-P126-P126-P183-601502

>  <ref_mols>  (183) 
A2290a,A3436a

>  <ref_pdb>  (183) 
A0514a

>  <exports>  (183) 
['/opt/xchem-fragalysis-2/maxwin/openbind-hippo/a71ev2a/cycle_01/bulkdock/openbind_a71ev2a_c1_elab_chemspace.sdf', '/opt/xchem-fragalysis-2/maxwin/openbind-hippo/a71ev2a/cycle_01/syndirella/elabs/openbind_a71ev2a_c1_elab_chemspace_filtered.sdf', '/opt/xchem-fragalysis-2/maxwin/openbind-hippo/a71ev2a/cycle_01/syndirella/elabs/ASAP-0031281-001_elabs.sdf']

>  <Energy>  (183) 
168.357349

>  <tags>  (183) 
fragmenstein_placed,openbind_a71ev2a_c1_elabs_filtered,a71ev2a_c1_elab_bulkdock_input

>  <GNINA pK>  (183) 
nan

$$$$
GMVALWIXUGOHHG-UHFFFAOYSA-N-P183-P126-P183-601502
     RDKit          3D

 30 33  0  0  0  0  0  0  0  0999 V2000
    7.9868   19.3717   19.8254 C   0  0  0  0  0  0  0  0  0  0  0  0
    8.3783   17.9835   20.0780 C   0  0  0  0  0  0  0  0  0  0  0  0
    8.7006   17.2489   18.9882 C   0  0  0  0  0  0  0  0  0  0  0  0
    9.3011   16.0310   19.0572 C   0  0  0  0  0  0  0  0  0  0  0  0
    9.3106   15.4423   20.2827 C   0  0  0  0  0  0  0  0  0  0  0  0
   10.2851   14.4594   20.5192 C   0  0  0  0  0  0  0  0  0  0  0  0
   10.5922   14.0480   21.7143 N   0  0  0  0  0  0  0  0  0  0  0  0
   11.9303   14.1990   21.7022 C   0  0  0  0  0  0  0  0  0  0  0  0
   12.6451   14.1461   22.9673 C   0  0  0  0  0  0  0  0  0  0  0  0
   11.8260   14.4580   24.1970 C   0  0  0  0  0  0  0  0  0  0  0  0
   10.7624   13.5420   24.3201 N   0  0  0  0  0  0  0  0  0  0  0  0
    9.3882   13.7070   24.9260 C   0  0  0  0  0  0  0  0  0  0  0  0
    8.9198   14.6004   25.4969 O   0  0  0  0  0  0  0  0  0  0  0  0
    8.7425   12.4128   24.7345 C   0  0  0  0  0  0  0  0  0  0  0  0
    9.3107   11.4547   23.9714 N   0  0  0  0  0  0  0  0  0  0  0  0
    8.6330   10.3443   24.2808 N   0  0  0  0  0  0  0  0  0  0  0  0
    9.1004    9.0929   23.7246 C   0  0  0  0  0  0  0  0  0  0  0  0
    7.6233   10.5756   25.1876 C   0  0  0  0  0  0  0  0  0  0  0  0
    6.6953    9.7474   25.8097 C   0  0  0  0  0  0  0  0  0  0  0  0
    5.8007   10.3059   26.7250 C   0  0  0  0  0  0  0  0  0  0  0  0
    5.8151   11.6766   26.9778 C   0  0  0  0  0  0  0  0  0  0  0  0
    4.8654   12.2373   27.9372 N   0  0  0  0  0  0  0  0  0  0  0  0
    3.7943   11.6349   28.1036 O   0  0  0  0  0  0  0  0  0  0  0  0
    5.2074   13.2579   28.5501 O   0  0  0  0  0  0  0  0  0  0  0  0
    6.7303   12.5188   26.3494 C   0  0  0  0  0  0  0  0  0  0  0  0
    7.6340   11.9408   25.4426 C   0  0  0  0  0  0  0  0  0  0  0  0
   12.3770   14.3873   20.4200 C   0  0  0  0  0  0  0  0  0  0  0  0
   11.3049   14.4899   19.6163 O   0  0  0  0  0  0  0  0  0  0  0  0
    8.6642   16.0003   21.3646 C   0  0  0  0  0  0  0  0  0  0  0  0
    8.3027   17.3238   21.2710 C   0  0  0  0  0  0  0  0  0  0  0  0
  1  2  1  0
  2  3  2  0
  3  4  1  0
  4  5  2  0
  5  6  1  0
  6  7  2  0
  7  8  1  0
  8  9  1  0
  9 10  1  0
 10 11  1  0
 11 12  1  0
 12 13  2  0
 12 14  1  0
 14 15  2  0
 15 16  1  0
 16 17  1  0
 16 18  1  0
 18 19  2  0
 19 20  1  0
 20 21  2  0
 21 22  1  0
 22 23  2  0
 22 24  1  0
 21 25  1  0
 25 26  2  0
  8 27  2  0
 27 28  1  0
  5 29  1  0
 29 30  2  0
 30  2  1  0
 28  6  1  0
 26 14  1  0
 26 18  1  0
M  CHG  2  22   1  24  -1
M  END
>  <energy_score>  (184) 
8.134253

>  <fragmenstein_runtime>  (184) 
9.016801

>  <HIPPO Pose ID>  (184) 
503503

>  <fragmenstein_error>  (184) 


>  <alias>  (184) 
GMVALWIXUGOHHG-UHFFFAOYSA-N-P183-P126-P183-601502

>  <orig_smiles>  (184) 
Cc1ccc(-c2nc(CCNC(=O)c3nn(C)c4ccc([N+](=O)[O-])cc34)co2)cc1

>  <smiles>  (184) 
Cc1ccc(-c2nc(CCNC(=O)c3nn(C)c4ccc([N+](=O)[O-])cc34)co2)cc1

>  <inchikey>  (184) 
GMVALWIXUGOHHG-UHFFFAOYSA-N

>  <HIPPO Compound ID>  (184) 
289886

>  <fragmenstein_mode>  (184) 
expansion

>  <fragmenstein_outcome>  (184) 
too moved

>  <distance_score>  (184) 
1.760486

>  <subsites>  (184) 
None

>  <scratch_subdir>  (184) 
/opt/xchem-fragalysis-2/maxwin/BulkDock/SCRATCH/601502/GMVALWIXUGOHHG-UHFFFAOYSA-N-P183-P126-P183-601502

>  <inspiration_score>  (184) 
None

>  <name>  (184) 
GMVALWIXUGOHHG-UHFFFAOYSA-N-P183-P126-P183-601502

>  <ref_mols>  (184) 
A2290a,A3436a

>  <ref_pdb>  (184) 
A0514a

>  <exports>  (184) 
['/opt/xchem-fragalysis-2/maxwin/openbind-hippo/a71ev2a/cycle_01/syndirella/elabs/ASAP-0031281-001_elabs.sdf']

>  <Energy>  (184) 
182.222293

>  <tags>  (184) 
fragmenstein_placed,a71ev2a_c1_elab_bulkdock_input

>  <GNINA pK>  (184) 
nan

$$$$
TUSOVPCJKAMVAN-UHFFFAOYSA-N-P126-P126-P183-601502
     RDKit          3D

 30 32  0  0  0  0  0  0  0  0999 V2000
   11.9208   14.5305   26.2161 C   0  0  0  0  0  0  0  0  0  0  0  0
   12.0250   13.6988   24.9130 C   0  0  0  0  0  0  0  0  0  0  0  0
   10.8406   12.7814   24.9486 C   0  0  0  0  0  0  0  0  0  0  0  0
   13.2832   12.8532   24.7104 C   0  0  0  0  0  0  0  0  0  0  0  0
   11.8146   14.6308   23.8200 O   0  0  0  0  0  0  0  0  0  0  0  0
   11.8780   14.2067   22.5136 C   0  0  0  0  0  0  0  0  0  0  0  0
   12.7515   13.4996   22.0457 O   0  0  0  0  0  0  0  0  0  0  0  0
   10.6338   14.6789   21.8009 C   0  0  1  0  0  0  0  0  0  0  0  0
   10.7200   14.8245   20.3102 C   0  0  0  0  0  0  0  0  0  0  0  0
    9.8895   15.9867   19.8719 C   0  0  0  0  0  0  0  0  0  0  0  0
    9.8737   16.6749   18.6840 C   0  0  0  0  0  0  0  0  0  0  0  0
    9.0373   17.7404   18.8003 O   0  0  0  0  0  0  0  0  0  0  0  0
    8.6179   17.6830   20.0913 C   0  0  0  0  0  0  0  0  0  0  0  0
    9.0737   16.6512   20.7622 N   0  0  0  0  0  0  0  0  0  0  0  0
    9.7735   13.6581   22.3223 N   0  0  0  0  0  0  0  0  0  0  0  0
    8.5079   13.7642   23.1725 C   0  0  0  0  0  0  0  0  0  0  0  0
    7.9127   14.6972   23.5240 O   0  0  0  0  0  0  0  0  0  0  0  0
    8.1936   12.3896   23.5904 C   0  0  0  0  0  0  0  0  0  0  0  0
    8.8720   11.3558   23.0509 N   0  0  0  0  0  0  0  0  0  0  0  0
    8.6008   10.3015   23.8545 N   0  0  0  0  0  0  0  0  0  0  0  0
    9.3045    9.0298   23.6504 C   0  0  0  0  0  0  0  0  0  0  0  0
   10.6226    9.1780   23.9266 F   0  0  0  0  0  0  0  0  0  0  0  0
    8.7995    8.0824   24.4662 F   0  0  0  0  0  0  0  0  0  0  0  0
    9.2311    8.5529   22.3910 F   0  0  0  0  0  0  0  0  0  0  0  0
    7.7678   10.6391   24.9030 C   0  0  0  0  0  0  0  0  0  0  0  0
    7.1754    9.9000   25.9266 C   0  0  0  0  0  0  0  0  0  0  0  0
    6.4483   10.5820   26.9045 C   0  0  0  0  0  0  0  0  0  0  0  0
    6.3232   11.9652   26.8691 C   0  0  0  0  0  0  0  0  0  0  0  0
    6.8753   12.6948   25.8179 C   0  0  0  0  0  0  0  0  0  0  0  0
    7.5596   12.0104   24.7975 C   0  0  0  0  0  0  0  0  0  0  0  0
  1  2  1  0
  2  3  1  0
  2  4  1  0
  2  5  1  0
  5  6  1  0
  6  7  2  0
  6  8  1  0
  8  9  1  6
  9 10  1  0
 10 11  2  0
 11 12  1  0
 12 13  1  0
 13 14  2  0
  8 15  1  0
 15 16  1  0
 16 17  2  0
 16 18  1  0
 18 19  2  0
 19 20  1  0
 20 21  1  0
 21 22  1  0
 21 23  1  0
 21 24  1  0
 20 25  1  0
 25 26  2  0
 26 27  1  0
 27 28  2  0
 28 29  1  0
 29 30  2  0
 14 10  1  0
 30 18  1  0
 30 25  1  0
M  END
>  <energy_score>  (185) 
24.677246

>  <fragmenstein_runtime>  (185) 
7.117531

>  <HIPPO Pose ID>  (185) 
503504

>  <fragmenstein_error>  (185) 


>  <alias>  (185) 
TUSOVPCJKAMVAN-UHFFFAOYSA-N-P126-P126-P183-601502

>  <orig_smiles>  (185) 
CC(C)(C)OC(=O)C(Cc1cocn1)NC(=O)c1nn(C(F)(F)F)c2ccccc12

>  <smiles>  (185) 
CC(C)(C)OC(=O)C(Cc1cocn1)NC(=O)c1nn(C(F)(F)F)c2ccccc12

>  <inchikey>  (185) 
TUSOVPCJKAMVAN-UHFFFAOYSA-N

>  <HIPPO Compound ID>  (185) 
289887

>  <fragmenstein_mode>  (185) 
expansion

>  <fragmenstein_outcome>  (185) 
too moved

>  <distance_score>  (185) 
1.420489

>  <subsites>  (185) 
None

>  <scratch_subdir>  (185) 
/opt/xchem-fragalysis-2/maxwin/BulkDock/SCRATCH/601502/TUSOVPCJKAMVAN-UHFFFAOYSA-N-P126-P126-P183-601502

>  <inspiration_score>  (185) 
None

>  <name>  (185) 
TUSOVPCJKAMVAN-UHFFFAOYSA-N-P126-P126-P183-601502

>  <ref_mols>  (185) 
A2290a,A3436a

>  <ref_pdb>  (185) 
A0514a

>  <exports>  (185) 
['/opt/xchem-fragalysis-2/maxwin/openbind-hippo/a71ev2a/cycle_01/bulkdock/openbind_a71ev2a_c1_elab_chemspace.sdf', '/opt/xchem-fragalysis-2/maxwin/openbind-hippo/a71ev2a/cycle_01/syndirella/elabs/ASAP-0031281-001_elabs.sdf']

>  <Energy>  (185) 
212.949879

>  <tags>  (185) 
fragmenstein_placed,a71ev2a_c1_elab_bulkdock_input

>  <GNINA pK>  (185) 
nan

$$$$
TUSOVPCJKAMVAN-UHFFFAOYSA-N-P183-P126-P183-601502
     RDKit          3D

 30 32  0  0  0  0  0  0  0  0999 V2000
   13.0083   14.5876   23.4186 C   0  0  0  0  0  0  0  0  0  0  0  0
   12.2647   13.4252   23.9861 C   0  0  0  0  0  0  0  0  0  0  0  0
   11.2188   13.9453   24.9778 C   0  0  0  0  0  0  0  0  0  0  0  0
   13.1608   12.5012   24.7984 C   0  0  0  0  0  0  0  0  0  0  0  0
   11.7644   12.6759   22.8939 O   0  0  0  0  0  0  0  0  0  0  0  0
   11.6877   13.4023   21.7214 C   0  0  0  0  0  0  0  0  0  0  0  0
   12.5105   13.2858   20.8228 O   0  0  0  0  0  0  0  0  0  0  0  0
   10.5536   14.4141   21.7289 C   0  0  1  0  0  0  0  0  0  0  0  0
   10.5048   14.8343   20.3151 C   0  0  0  0  0  0  0  0  0  0  0  0
    9.7395   16.0385   20.1510 C   0  0  0  0  0  0  0  0  0  0  0  0
    9.1630   16.4123   18.9939 C   0  0  0  0  0  0  0  0  0  0  0  0
    8.5675   17.6132   19.1781 O   0  0  0  0  0  0  0  0  0  0  0  0
    8.7966   17.8759   20.4900 C   0  0  0  0  0  0  0  0  0  0  0  0
    9.5321   16.9787   21.1045 N   0  0  0  0  0  0  0  0  0  0  0  0
    9.6541   13.5446   22.3980 N   0  0  0  0  0  0  0  0  0  0  0  0
    8.5830   13.8375   23.4312 C   0  0  0  0  0  0  0  0  0  0  0  0
    8.2012   14.8466   23.8535 O   0  0  0  0  0  0  0  0  0  0  0  0
    8.1881   12.5030   23.8686 C   0  0  0  0  0  0  0  0  0  0  0  0
    8.8483   11.4583   23.3226 N   0  0  0  0  0  0  0  0  0  0  0  0
    8.5228   10.3950   24.0679 N   0  0  0  0  0  0  0  0  0  0  0  0
    9.1528    9.1030   23.7580 C   0  0  0  0  0  0  0  0  0  0  0  0
   10.4751    9.1374   24.0528 F   0  0  0  0  0  0  0  0  0  0  0  0
    8.5798    8.1093   24.4656 F   0  0  0  0  0  0  0  0  0  0  0  0
    9.0764    8.7607   22.4557 F   0  0  0  0  0  0  0  0  0  0  0  0
    7.6176   10.7286   25.0567 C   0  0  0  0  0  0  0  0  0  0  0  0
    6.8463    9.9775   25.9384 C   0  0  0  0  0  0  0  0  0  0  0  0
    6.0612   10.6504   26.8783 C   0  0  0  0  0  0  0  0  0  0  0  0
    6.0438   12.0388   26.9371 C   0  0  0  0  0  0  0  0  0  0  0  0
    6.7478   12.7910   25.9999 C   0  0  0  0  0  0  0  0  0  0  0  0
    7.4852   12.1169   25.0149 C   0  0  0  0  0  0  0  0  0  0  0  0
  1  2  1  0
  2  3  1  0
  2  4  1  0
  2  5  1  0
  5  6  1  0
  6  7  2  0
  6  8  1  0
  8  9  1  6
  9 10  1  0
 10 11  2  0
 11 12  1  0
 12 13  1  0
 13 14  2  0
  8 15  1  0
 15 16  1  0
 16 17  2  0
 16 18  1  0
 18 19  2  0
 19 20  1  0
 20 21  1  0
 21 22  1  0
 21 23  1  0
 21 24  1  0
 20 25  1  0
 25 26  2  0
 26 27  1  0
 27 28  2  0
 28 29  1  0
 29 30  2  0
 14 10  1  0
 30 18  1  0
 30 25  1  0
M  END
>  <energy_score>  (186) 
53.513958

>  <fragmenstein_runtime>  (186) 
5.554636

>  <HIPPO Pose ID>  (186) 
503505

>  <fragmenstein_error>  (186) 


>  <alias>  (186) 
TUSOVPCJKAMVAN-UHFFFAOYSA-N-P183-P126-P183-601502

>  <orig_smiles>  (186) 
CC(C)(C)OC(=O)C(Cc1cocn1)NC(=O)c1nn(C(F)(F)F)c2ccccc12

>  <smiles>  (186) 
CC(C)(C)OC(=O)C(Cc1cocn1)NC(=O)c1nn(C(F)(F)F)c2ccccc12

>  <inchikey>  (186) 
TUSOVPCJKAMVAN-UHFFFAOYSA-N

>  <HIPPO Compound ID>  (186) 
289887

>  <fragmenstein_mode>  (186) 
expansion

>  <fragmenstein_outcome>  (186) 
too moved

>  <distance_score>  (186) 
1.456555

>  <subsites>  (186) 
None

>  <scratch_subdir>  (186) 
/opt/xchem-fragalysis-2/maxwin/BulkDock/SCRATCH/601502/TUSOVPCJKAMVAN-UHFFFAOYSA-N-P183-P126-P183-601502

>  <inspiration_score>  (186) 
None

>  <name>  (186) 
TUSOVPCJKAMVAN-UHFFFAOYSA-N-P183-P126-P183-601502

>  <ref_mols>  (186) 
A2290a,A3436a

>  <ref_pdb>  (186) 
A0514a

>  <exports>  (186) 
['/opt/xchem-fragalysis-2/maxwin/openbind-hippo/a71ev2a/cycle_01/syndirella/elabs/ASAP-0031281-001_elabs.sdf']

>  <Energy>  (186) 
241.78659

>  <tags>  (186) 
fragmenstein_placed,a71ev2a_c1_elab_bulkdock_input

>  <GNINA pK>  (186) 
nan

$$$$
LDANNWWFDXARCO-UHFFFAOYSA-N-P126-P126-P183-601502
     RDKit          3D

 30 33  0  0  0  0  0  0  0  0999 V2000
   11.9530   14.2276   18.4824 C   0  0  0  0  0  0  0  0  0  0  0  0
   11.1988   14.6098   19.6385 C   0  0  0  0  0  0  0  0  0  0  0  0
    9.9824   15.0715   19.3803 O   0  0  0  0  0  0  0  0  0  0  0  0
    9.7934   15.9078   20.4135 C   0  0  0  0  0  0  0  0  0  0  0  0
    9.1621   17.0896   19.9415 C   0  0  0  0  0  0  0  0  0  0  0  0
    8.5942   17.9948   20.7906 C   0  0  0  0  0  0  0  0  0  0  0  0
    7.8629   19.0047   20.2456 C   0  0  0  0  0  0  0  0  0  0  0  0
    7.5758   19.0021   18.9101 C   0  0  0  0  0  0  0  0  0  0  0  0
    8.2381   18.1835   18.0362 C   0  0  0  0  0  0  0  0  0  0  0  0
    9.1132   17.2846   18.5490 C   0  0  0  0  0  0  0  0  0  0  0  0
   10.5001   15.6227   21.4824 N   0  0  0  0  0  0  0  0  0  0  0  0
   11.4465   14.7810   20.9632 C   0  0  0  0  0  0  0  0  0  0  0  0
   12.6302   14.3248   21.6791 C   0  0  0  0  0  0  0  0  0  0  0  0
   12.3899   14.1977   23.1504 C   0  0  0  0  0  0  0  0  0  0  0  0
   11.3700   13.2788   23.4732 N   0  0  0  0  0  0  0  0  0  0  0  0
   10.3466   13.2916   24.5998 C   0  0  0  0  0  0  0  0  0  0  0  0
   10.1219   14.0986   25.4056 O   0  0  0  0  0  0  0  0  0  0  0  0
    9.6233   12.0327   24.4848 C   0  0  0  0  0  0  0  0  0  0  0  0
   10.0802   11.0854   23.6482 N   0  0  0  0  0  0  0  0  0  0  0  0
    9.2828   10.0173   23.8669 N   0  0  0  0  0  0  0  0  0  0  0  0
    9.4953    8.8031   23.0626 C   0  0  0  0  0  0  0  0  0  0  0  0
    9.9512    9.1035   21.8214 F   0  0  0  0  0  0  0  0  0  0  0  0
   10.4155    7.9630   23.5866 F   0  0  0  0  0  0  0  0  0  0  0  0
    8.3554    8.1074   22.9159 F   0  0  0  0  0  0  0  0  0  0  0  0
    8.3177   10.2869   24.8221 C   0  0  0  0  0  0  0  0  0  0  0  0
    7.3145    9.5210   25.4083 C   0  0  0  0  0  0  0  0  0  0  0  0
    6.4566   10.1227   26.3355 C   0  0  0  0  0  0  0  0  0  0  0  0
    6.5964   11.4613   26.6782 C   0  0  0  0  0  0  0  0  0  0  0  0
    7.6159   12.2229   26.1140 C   0  0  0  0  0  0  0  0  0  0  0  0
    8.4841   11.6193   25.1869 C   0  0  0  0  0  0  0  0  0  0  0  0
  1  2  1  0
  2  3  1  0
  3  4  1  0
  4  5  1  0
  5  6  2  0
  6  7  1  0
  7  8  2  0
  8  9  1  0
  9 10  2  0
  4 11  2  0
 11 12  1  0
 12 13  1  0
 13 14  1  0
 14 15  1  0
 15 16  1  0
 16 17  2  0
 16 18  1  0
 18 19  2  0
 19 20  1  0
 20 21  1  0
 21 22  1  0
 21 23  1  0
 21 24  1  0
 20 25  1  0
 25 26  2  0
 26 27  1  0
 27 28  2  0
 28 29  1  0
 29 30  2  0
 12  2  2  0
 30 18  1  0
 10  5  1  0
 30 25  1  0
M  END
>  <energy_score>  (187) 
21.347647

>  <fragmenstein_runtime>  (187) 
4.886638

>  <HIPPO Pose ID>  (187) 
503506

>  <fragmenstein_error>  (187) 


>  <alias>  (187) 
LDANNWWFDXARCO-UHFFFAOYSA-N-P126-P126-P183-601502

>  <orig_smiles>  (187) 
Cc1oc(-c2ccccc2)nc1CCNC(=O)c1nn(C(F)(F)F)c2ccccc12

>  <smiles>  (187) 
Cc1oc(-c2ccccc2)nc1CCNC(=O)c1nn(C(F)(F)F)c2ccccc12

>  <inchikey>  (187) 
LDANNWWFDXARCO-UHFFFAOYSA-N

>  <HIPPO Compound ID>  (187) 
289888

>  <fragmenstein_mode>  (187) 
expansion

>  <fragmenstein_outcome>  (187) 
too contorted

>  <distance_score>  (187) 
0.831926

>  <subsites>  (187) 
None

>  <scratch_subdir>  (187) 
/opt/xchem-fragalysis-2/maxwin/BulkDock/SCRATCH/601502/LDANNWWFDXARCO-UHFFFAOYSA-N-P126-P126-P183-601502

>  <inspiration_score>  (187) 
None

>  <name>  (187) 
LDANNWWFDXARCO-UHFFFAOYSA-N-P126-P126-P183-601502

>  <ref_mols>  (187) 
A2290a,A3436a

>  <ref_pdb>  (187) 
A0514a

>  <exports>  (187) 
['/opt/xchem-fragalysis-2/maxwin/openbind-hippo/a71ev2a/cycle_01/syndirella/elabs/ASAP-0031281-001_elabs.sdf']

>  <Energy>  (187) 
209.049104

>  <tags>  (187) 
fragmenstein_placed,a71ev2a_c1_elab_bulkdock_input

>  <GNINA pK>  (187) 
nan

$$$$
LDANNWWFDXARCO-UHFFFAOYSA-N-P183-P126-P183-601502
     RDKit          3D

 30 33  0  0  0  0  0  0  0  0999 V2000
   11.7715   14.5480   18.4241 C   0  0  0  0  0  0  0  0  0  0  0  0
   11.0194   14.9067   19.5930 C   0  0  0  0  0  0  0  0  0  0  0  0
    9.8233   15.4166   19.3228 O   0  0  0  0  0  0  0  0  0  0  0  0
    9.5335   16.0834   20.4579 C   0  0  0  0  0  0  0  0  0  0  0  0
    8.8295   17.2719   20.1624 C   0  0  0  0  0  0  0  0  0  0  0  0
    8.7966   18.3287   20.9892 C   0  0  0  0  0  0  0  0  0  0  0  0
    8.2069   19.4602   20.5216 C   0  0  0  0  0  0  0  0  0  0  0  0
    7.5104   19.5266   19.3656 C   0  0  0  0  0  0  0  0  0  0  0  0
    7.6214   18.5436   18.5063 C   0  0  0  0  0  0  0  0  0  0  0  0
    8.3640   17.4673   18.8817 C   0  0  0  0  0  0  0  0  0  0  0  0
   10.2319   15.7320   21.5057 N   0  0  0  0  0  0  0  0  0  0  0  0
   11.2332   15.0039   20.9376 C   0  0  0  0  0  0  0  0  0  0  0  0
   12.4005   14.5693   21.6932 C   0  0  0  0  0  0  0  0  0  0  0  0
   12.1642   14.5095   23.1815 C   0  0  0  0  0  0  0  0  0  0  0  0
   11.1605   13.5605   23.5101 N   0  0  0  0  0  0  0  0  0  0  0  0
   10.0030   13.6449   24.4955 C   0  0  0  0  0  0  0  0  0  0  0  0
    9.7218   14.4744   25.2587 O   0  0  0  0  0  0  0  0  0  0  0  0
    9.2606   12.3949   24.3689 C   0  0  0  0  0  0  0  0  0  0  0  0
    9.7245   11.4102   23.5800 N   0  0  0  0  0  0  0  0  0  0  0  0
    9.0264   10.3176   23.9668 N   0  0  0  0  0  0  0  0  0  0  0  0
    9.4683    8.9956   23.5037 C   0  0  0  0  0  0  0  0  0  0  0  0
    9.4016    8.8713   22.1622 F   0  0  0  0  0  0  0  0  0  0  0  0
   10.7588    8.7570   23.8392 F   0  0  0  0  0  0  0  0  0  0  0  0
    8.7182    8.0220   24.0510 F   0  0  0  0  0  0  0  0  0  0  0  0
    8.0398   10.6285   24.8899 C   0  0  0  0  0  0  0  0  0  0  0  0
    7.0956    9.8682   25.5866 C   0  0  0  0  0  0  0  0  0  0  0  0
    6.2213   10.5155   26.4654 C   0  0  0  0  0  0  0  0  0  0  0  0
    6.2810   11.8901   26.6497 C   0  0  0  0  0  0  0  0  0  0  0  0
    7.2312   12.6467   25.9681 C   0  0  0  0  0  0  0  0  0  0  0  0
    8.1214   12.0019   25.0903 C   0  0  0  0  0  0  0  0  0  0  0  0
  1  2  1  0
  2  3  1  0
  3  4  1  0
  4  5  1  0
  5  6  2  0
  6  7  1  0
  7  8  2  0
  8  9  1  0
  9 10  2  0
  4 11  2  0
 11 12  1  0
 12 13  1  0
 13 14  1  0
 14 15  1  0
 15 16  1  0
 16 17  2  0
 16 18  1  0
 18 19  2  0
 19 20  1  0
 20 21  1  0
 21 22  1  0
 21 23  1  0
 21 24  1  0
 20 25  1  0
 25 26  2  0
 26 27  1  0
 27 28  2  0
 28 29  1  0
 29 30  2  0
 12  2  2  0
 30 18  1  0
 10  5  1  0
 30 25  1  0
M  END
>  <energy_score>  (188) 
23.665409

>  <fragmenstein_runtime>  (188) 
6.74067

>  <HIPPO Pose ID>  (188) 
503507

>  <fragmenstein_error>  (188) 


>  <alias>  (188) 
LDANNWWFDXARCO-UHFFFAOYSA-N-P183-P126-P183-601502

>  <orig_smiles>  (188) 
Cc1oc(-c2ccccc2)nc1CCNC(=O)c1nn(C(F)(F)F)c2ccccc12

>  <smiles>  (188) 
Cc1oc(-c2ccccc2)nc1CCNC(=O)c1nn(C(F)(F)F)c2ccccc12

>  <inchikey>  (188) 
LDANNWWFDXARCO-UHFFFAOYSA-N

>  <HIPPO Compound ID>  (188) 
289888

>  <fragmenstein_mode>  (188) 
expansion

>  <fragmenstein_outcome>  (188) 
too contorted

>  <distance_score>  (188) 
0.822058

>  <subsites>  (188) 
None

>  <scratch_subdir>  (188) 
/opt/xchem-fragalysis-2/maxwin/BulkDock/SCRATCH/601502/LDANNWWFDXARCO-UHFFFAOYSA-N-P183-P126-P183-601502

>  <inspiration_score>  (188) 
None

>  <name>  (188) 
LDANNWWFDXARCO-UHFFFAOYSA-N-P183-P126-P183-601502

>  <ref_mols>  (188) 
A2290a,A3436a

>  <ref_pdb>  (188) 
A0514a

>  <exports>  (188) 
['/opt/xchem-fragalysis-2/maxwin/openbind-hippo/a71ev2a/cycle_01/bulkdock/openbind_a71ev2a_c1_elab_chemspace.sdf', '/opt/xchem-fragalysis-2/maxwin/openbind-hippo/a71ev2a/cycle_01/syndirella/elabs/ASAP-0031281-001_elabs.sdf']

>  <Energy>  (188) 
211.366867

>  <tags>  (188) 
fragmenstein_placed,a71ev2a_c1_elab_bulkdock_input

>  <GNINA pK>  (188) 
nan

$$$$
YIXURSTWTSSPDR-UHFFFAOYSA-N-P126-P126-P183-601502
     RDKit          3D

 30 33  0  0  0  0  0  0  0  0999 V2000
    7.2309   19.2986   19.6682 C   0  0  0  0  0  0  0  0  0  0  0  0
    8.3181   18.3396   19.7009 C   0  0  0  0  0  0  0  0  0  0  0  0
    8.8501   17.8853   18.5183 C   0  0  0  0  0  0  0  0  0  0  0  0
    9.6768   16.8035   18.5484 C   0  0  0  0  0  0  0  0  0  0  0  0
    9.6959   16.0349   19.6948 C   0  0  0  0  0  0  0  0  0  0  0  0
   10.5376   14.9231   19.9192 C   0  0  0  0  0  0  0  0  0  0  0  0
   10.7416   14.4301   21.1197 N   0  0  0  0  0  0  0  0  0  0  0  0
   12.0401   14.1078   21.0614 C   0  0  0  0  0  0  0  0  0  0  0  0
   12.7906   13.8161   22.2664 C   0  0  0  0  0  0  0  0  0  0  0  0
   12.0919   14.1367   23.5527 C   0  0  0  0  0  0  0  0  0  0  0  0
   11.0060   13.2925   23.8426 N   0  0  0  0  0  0  0  0  0  0  0  0
    9.8512   13.4671   24.8121 C   0  0  0  0  0  0  0  0  0  0  0  0
    9.6410   14.3021   25.5913 O   0  0  0  0  0  0  0  0  0  0  0  0
    9.0366   12.2681   24.6564 C   0  0  0  0  0  0  0  0  0  0  0  0
    9.4218   11.3022   23.7996 N   0  0  0  0  0  0  0  0  0  0  0  0
    8.7028   10.2268   24.1787 N   0  0  0  0  0  0  0  0  0  0  0  0
    9.1326    8.8833   23.7833 C   0  0  0  0  0  0  0  0  0  0  0  0
    8.6350    8.4826   22.6079 F   0  0  0  0  0  0  0  0  0  0  0  0
    8.6845    8.0003   24.6995 F   0  0  0  0  0  0  0  0  0  0  0  0
   10.4802    8.7803   23.7046 F   0  0  0  0  0  0  0  0  0  0  0  0
    7.7425   10.5426   25.1247 C   0  0  0  0  0  0  0  0  0  0  0  0
    6.7673    9.7903   25.7814 C   0  0  0  0  0  0  0  0  0  0  0  0
    5.9894   10.4189   26.7557 C   0  0  0  0  0  0  0  0  0  0  0  0
    6.1736   11.7608   27.0670 C   0  0  0  0  0  0  0  0  0  0  0  0
    7.1506   12.5074   26.4141 C   0  0  0  0  0  0  0  0  0  0  0  0
    7.9331   11.8846   25.4296 C   0  0  0  0  0  0  0  0  0  0  0  0
   12.4656   14.1445   19.7646 C   0  0  0  0  0  0  0  0  0  0  0  0
   11.4890   14.6669   18.9969 O   0  0  0  0  0  0  0  0  0  0  0  0
    9.0424   16.4405   20.8428 C   0  0  0  0  0  0  0  0  0  0  0  0
    8.5009   17.6772   20.8930 C   0  0  0  0  0  0  0  0  0  0  0  0
  1  2  1  0
  2  3  2  0
  3  4  1  0
  4  5  2  0
  5  6  1  0
  6  7  2  0
  7  8  1  0
  8  9  1  0
  9 10  1  0
 10 11  1  0
 11 12  1  0
 12 13  2  0
 12 14  1  0
 14 15  2  0
 15 16  1  0
 16 17  1  0
 17 18  1  0
 17 19  1  0
 17 20  1  0
 16 21  1  0
 21 22  2  0
 22 23  1  0
 23 24  2  0
 24 25  1  0
 25 26  2  0
  8 27  2  0
 27 28  1  0
  5 29  1  0
 29 30  2  0
 30  2  1  0
 28  6  1  0
 26 14  1  0
 26 21  1  0
M  END
>  <energy_score>  (189) 
23.252066

>  <fragmenstein_runtime>  (189) 
6.594131

>  <HIPPO Pose ID>  (189) 
503508

>  <fragmenstein_error>  (189) 


>  <alias>  (189) 
YIXURSTWTSSPDR-UHFFFAOYSA-N-P126-P126-P183-601502

>  <orig_smiles>  (189) 
Cc1ccc(-c2nc(CCNC(=O)c3nn(C(F)(F)F)c4ccccc34)co2)cc1

>  <smiles>  (189) 
Cc1ccc(-c2nc(CCNC(=O)c3nn(C(F)(F)F)c4ccccc34)co2)cc1

>  <inchikey>  (189) 
YIXURSTWTSSPDR-UHFFFAOYSA-N

>  <HIPPO Compound ID>  (189) 
289889

>  <fragmenstein_mode>  (189) 
expansion

>  <fragmenstein_outcome>  (189) 
too moved

>  <distance_score>  (189) 
1.491543

>  <subsites>  (189) 
None

>  <scratch_subdir>  (189) 
/opt/xchem-fragalysis-2/maxwin/BulkDock/SCRATCH/601502/YIXURSTWTSSPDR-UHFFFAOYSA-N-P126-P126-P183-601502

>  <inspiration_score>  (189) 
None

>  <name>  (189) 
YIXURSTWTSSPDR-UHFFFAOYSA-N-P126-P126-P183-601502

>  <ref_mols>  (189) 
A2290a,A3436a

>  <ref_pdb>  (189) 
A0514a

>  <exports>  (189) 
['/opt/xchem-fragalysis-2/maxwin/openbind-hippo/a71ev2a/cycle_01/bulkdock/openbind_a71ev2a_c1_elab_chemspace.sdf', '/opt/xchem-fragalysis-2/maxwin/openbind-hippo/a71ev2a/cycle_01/syndirella/elabs/ASAP-0031281-001_elabs.sdf']

>  <Energy>  (189) 
214.553154

>  <tags>  (189) 
fragmenstein_placed,a71ev2a_c1_elab_bulkdock_input

>  <GNINA pK>  (189) 
nan

$$$$
YIXURSTWTSSPDR-UHFFFAOYSA-N-P183-P126-P183-601502
     RDKit          3D

 30 33  0  0  0  0  0  0  0  0999 V2000
    7.9825   19.3747   19.8223 C   0  0  0  0  0  0  0  0  0  0  0  0
    8.3791   17.9870   20.0665 C   0  0  0  0  0  0  0  0  0  0  0  0
    8.6875   17.2560   18.9704 C   0  0  0  0  0  0  0  0  0  0  0  0
    9.2972   16.0411   19.0254 C   0  0  0  0  0  0  0  0  0  0  0  0
    9.3411   15.4531   20.2471 C   0  0  0  0  0  0  0  0  0  0  0  0
   10.3109   14.4574   20.4504 C   0  0  0  0  0  0  0  0  0  0  0  0
   10.6229   14.0264   21.6348 N   0  0  0  0  0  0  0  0  0  0  0  0
   11.9553   14.2224   21.6373 C   0  0  0  0  0  0  0  0  0  0  0  0
   12.6460   14.2194   22.9204 C   0  0  0  0  0  0  0  0  0  0  0  0
   11.7881   14.5901   24.1135 C   0  0  0  0  0  0  0  0  0  0  0  0
   10.6699   13.7394   24.1689 N   0  0  0  0  0  0  0  0  0  0  0  0
    9.4383   13.7911   25.0403 C   0  0  0  0  0  0  0  0  0  0  0  0
    9.0944   14.5857   25.8110 O   0  0  0  0  0  0  0  0  0  0  0  0
    8.7748   12.5152   24.7718 C   0  0  0  0  0  0  0  0  0  0  0  0
    9.3451   11.6299   23.9284 N   0  0  0  0  0  0  0  0  0  0  0  0
    8.7351   10.4582   24.1917 N   0  0  0  0  0  0  0  0  0  0  0  0
    9.3131    9.2212   23.6343 C   0  0  0  0  0  0  0  0  0  0  0  0
    9.3122    9.2029   22.2880 F   0  0  0  0  0  0  0  0  0  0  0  0
    8.6492    8.1321   24.0722 F   0  0  0  0  0  0  0  0  0  0  0  0
   10.6106    9.0826   24.0051 F   0  0  0  0  0  0  0  0  0  0  0  0
    7.7193   10.6162   25.1205 C   0  0  0  0  0  0  0  0  0  0  0  0
    6.8298    9.7341   25.7275 C   0  0  0  0  0  0  0  0  0  0  0  0
    5.9234   10.2286   26.6706 C   0  0  0  0  0  0  0  0  0  0  0  0
    5.8881   11.5769   26.9962 C   0  0  0  0  0  0  0  0  0  0  0  0
    6.7702   12.4621   26.3899 C   0  0  0  0  0  0  0  0  0  0  0  0
    7.6850   11.9683   25.4471 C   0  0  0  0  0  0  0  0  0  0  0  0
   12.4037   14.3967   20.3546 C   0  0  0  0  0  0  0  0  0  0  0  0
   11.3310   14.4996   19.5476 O   0  0  0  0  0  0  0  0  0  0  0  0
    8.7172   16.0090   21.3449 C   0  0  0  0  0  0  0  0  0  0  0  0
    8.3286   17.3262   21.2592 C   0  0  0  0  0  0  0  0  0  0  0  0
  1  2  1  0
  2  3  2  0
  3  4  1  0
  4  5  2  0
  5  6  1  0
  6  7  2  0
  7  8  1  0
  8  9  1  0
  9 10  1  0
 10 11  1  0
 11 12  1  0
 12 13  2  0
 12 14  1  0
 14 15  2  0
 15 16  1  0
 16 17  1  0
 17 18  1  0
 17 19  1  0
 17 20  1  0
 16 21  1  0
 21 22  2  0
 22 23  1  0
 23 24  2  0
 24 25  1  0
 25 26  2  0
  8 27  2  0
 27 28  1  0
  5 29  1  0
 29 30  2  0
 30  2  1  0
 28  6  1  0
 26 14  1  0
 26 21  1  0
M  END
>  <energy_score>  (190) 
39.313176

>  <fragmenstein_runtime>  (190) 
6.237125

>  <HIPPO Pose ID>  (190) 
503509

>  <fragmenstein_error>  (190) 


>  <alias>  (190) 
YIXURSTWTSSPDR-UHFFFAOYSA-N-P183-P126-P183-601502

>  <orig_smiles>  (190) 
Cc1ccc(-c2nc(CCNC(=O)c3nn(C(F)(F)F)c4ccccc34)co2)cc1

>  <smiles>  (190) 
Cc1ccc(-c2nc(CCNC(=O)c3nn(C(F)(F)F)c4ccccc34)co2)cc1

>  <inchikey>  (190) 
YIXURSTWTSSPDR-UHFFFAOYSA-N

>  <HIPPO Compound ID>  (190) 
289889

>  <fragmenstein_mode>  (190) 
expansion

>  <fragmenstein_outcome>  (190) 
too moved

>  <distance_score>  (190) 
1.748186

>  <subsites>  (190) 
None

>  <scratch_subdir>  (190) 
/opt/xchem-fragalysis-2/maxwin/BulkDock/SCRATCH/601502/YIXURSTWTSSPDR-UHFFFAOYSA-N-P183-P126-P183-601502

>  <inspiration_score>  (190) 
None

>  <name>  (190) 
YIXURSTWTSSPDR-UHFFFAOYSA-N-P183-P126-P183-601502

>  <ref_mols>  (190) 
A2290a,A3436a

>  <ref_pdb>  (190) 
A0514a

>  <exports>  (190) 
['/opt/xchem-fragalysis-2/maxwin/openbind-hippo/a71ev2a/cycle_01/syndirella/elabs/ASAP-0031281-001_elabs.sdf']

>  <Energy>  (190) 
230.614265

>  <tags>  (190) 
fragmenstein_placed,a71ev2a_c1_elab_bulkdock_input

>  <GNINA pK>  (190) 
nan

$$$$
UTVYTMWHNABYGU-UHFFFAOYSA-N-P126-P126-P183-601502
     RDKit          3D

 30 34  0  0  0  0  0  0  0  0999 V2000
   10.1609   14.3383   25.4734 O   0  0  0  0  0  0  0  0  0  0  0  0
   10.1828   13.4041   24.7326 C   0  0  0  0  0  0  0  0  0  0  0  0
    9.3418   12.2132   24.8825 C   0  0  0  0  0  0  0  0  0  0  0  0
    9.6774   11.1169   24.1883 N   0  0  0  0  0  0  0  0  0  0  0  0
    8.7521   10.2090   24.4792 N   0  0  0  0  0  0  0  0  0  0  0  0
    8.9262    8.8583   23.9608 C   0  0  0  0  0  0  0  0  0  0  0  0
   10.2178    8.5413   23.7008 F   0  0  0  0  0  0  0  0  0  0  0  0
    8.2488    8.6385   22.8297 F   0  0  0  0  0  0  0  0  0  0  0  0
    8.4422    7.9887   24.8667 F   0  0  0  0  0  0  0  0  0  0  0  0
    7.8196   10.6669   25.3872 C   0  0  0  0  0  0  0  0  0  0  0  0
    6.7128   10.0648   25.9987 C   0  0  0  0  0  0  0  0  0  0  0  0
    5.9610   10.8340   26.8908 C   0  0  0  0  0  0  0  0  0  0  0  0
    6.2916   12.1606   27.1538 C   0  0  0  0  0  0  0  0  0  0  0  0
    7.3969   12.7549   26.5388 C   0  0  0  0  0  0  0  0  0  0  0  0
    8.1782   11.9911   25.6533 C   0  0  0  0  0  0  0  0  0  0  0  0
   10.8890   13.1909   23.5188 N   0  0  0  0  0  0  0  0  0  0  0  0
   12.3134   14.2912   22.6459 C   0  0  0  0  0  0  0  0  0  0  0  0
   12.7112   14.0838   20.8705 C   0  0  0  0  0  0  0  0  0  0  0  0
   11.3946   14.2946   20.3072 C   0  0  0  0  0  0  0  0  0  0  0  0
   10.9721   15.1358   19.3793 N   0  0  0  0  0  0  0  0  0  0  0  0
    9.9484   15.6921   19.9999 C   0  0  0  0  0  0  0  0  0  0  0  0
    9.2825   16.8922   19.6353 C   0  0  0  0  0  0  0  0  0  0  0  0
    9.1246   17.1806   18.2967 C   0  0  0  0  0  0  0  0  0  0  0  0
    8.2325   18.1495   17.9410 C   0  0  0  0  0  0  0  0  0  0  0  0
    7.6547   18.9363   18.9157 C   0  0  0  0  0  0  0  0  0  0  0  0
    8.0186   18.8148   20.2237 C   0  0  0  0  0  0  0  0  0  0  0  0
    8.7548   17.7321   20.5990 C   0  0  0  0  0  0  0  0  0  0  0  0
    9.6074   15.1716   21.2297 O   0  0  0  0  0  0  0  0  0  0  0  0
   10.5303   14.2055   21.3477 C   0  0  0  0  0  0  0  0  0  0  0  0
   11.5801   13.9669   22.8207 C   0  0  0  0  0  0  0  0  0  0  0  0
  1  2  2  0
  2  3  1  0
  3  4  2  0
  4  5  1  0
  5  6  1  0
  6  7  1  0
  6  8  1  0
  6  9  1  0
  5 10  1  0
 10 11  2  0
 11 12  1  0
 12 13  2  0
 13 14  1  0
 14 15  2  0
  2 16  1  0
 16 17  1  0
 17 18  1  0
 18 19  1  0
 19 20  1  0
 20 21  2  0
 21 22  1  0
 22 23  2  0
 23 24  1  0
 24 25  2  0
 25 26  1  0
 26 27  2  0
 21 28  1  0
 28 29  1  0
 29 30  1  0
 15  3  1  0
 30 16  1  0
 15 10  1  0
 29 19  2  0
 27 22  1  0
M  END
>  <energy_score>  (191) 
848.976736

>  <fragmenstein_runtime>  (191) 
12.823692

>  <HIPPO Pose ID>  (191) 
503510

>  <fragmenstein_error>  (191) 


>  <alias>  (191) 
UTVYTMWHNABYGU-UHFFFAOYSA-N-P126-P126-P183-601502

>  <orig_smiles>  (191) 
O=C(c1nn(C(F)(F)F)c2ccccc12)N1CCc2nc(-c3ccccc3)oc2C1

>  <smiles>  (191) 
O=C(c1nn(C(F)(F)F)c2ccccc12)N1CCc2nc(-c3ccccc3)oc2C1

>  <inchikey>  (191) 
UTVYTMWHNABYGU-UHFFFAOYSA-N

>  <HIPPO Compound ID>  (191) 
289890

>  <fragmenstein_mode>  (191) 
expansion

>  <fragmenstein_outcome>  (191) 
too moved

>  <distance_score>  (191) 
1.187659

>  <subsites>  (191) 
None

>  <scratch_subdir>  (191) 
/opt/xchem-fragalysis-2/maxwin/BulkDock/SCRATCH/601502/UTVYTMWHNABYGU-UHFFFAOYSA-N-P126-P126-P183-601502

>  <inspiration_score>  (191) 
None

>  <name>  (191) 
UTVYTMWHNABYGU-UHFFFAOYSA-N-P126-P126-P183-601502

>  <ref_mols>  (191) 
A2290a,A3436a

>  <ref_pdb>  (191) 
A0514a

>  <exports>  (191) 
['/opt/xchem-fragalysis-2/maxwin/openbind-hippo/a71ev2a/cycle_01/bulkdock/openbind_a71ev2a_c1_elab_chemspace.sdf', '/opt/xchem-fragalysis-2/maxwin/openbind-hippo/a71ev2a/cycle_01/syndirella/elabs/ASAP-0031281-001_elabs.sdf']

>  <Energy>  (191) 
1056.76653

>  <tags>  (191) 
fragmenstein_placed,a71ev2a_c1_elab_bulkdock_input

>  <GNINA pK>  (191) 
nan

$$$$
UTVYTMWHNABYGU-UHFFFAOYSA-N-P183-P126-P183-601502
     RDKit          3D

 30 34  0  0  0  0  0  0  0  0999 V2000
    9.1697   14.6483   25.7448 O   0  0  0  0  0  0  0  0  0  0  0  0
    9.3316   13.7475   25.0389 C   0  0  0  0  0  0  0  0  0  0  0  0
    8.4257   12.6010   24.8940 C   0  0  0  0  0  0  0  0  0  0  0  0
    8.6702   11.6953   23.9287 N   0  0  0  0  0  0  0  0  0  0  0  0
    8.2339   10.5469   24.4480 N   0  0  0  0  0  0  0  0  0  0  0  0
    8.8666    9.2993   23.9930 C   0  0  0  0  0  0  0  0  0  0  0  0
   10.2054    9.3309   24.1999 F   0  0  0  0  0  0  0  0  0  0  0  0
    8.7304    9.0577   22.6777 F   0  0  0  0  0  0  0  0  0  0  0  0
    8.3493    8.2336   24.6388 F   0  0  0  0  0  0  0  0  0  0  0  0
    7.3047   10.7785   25.4474 C   0  0  0  0  0  0  0  0  0  0  0  0
    6.4107    9.9564   26.1343 C   0  0  0  0  0  0  0  0  0  0  0  0
    5.6430   10.5175   27.1599 C   0  0  0  0  0  0  0  0  0  0  0  0
    5.7569   11.8637   27.4898 C   0  0  0  0  0  0  0  0  0  0  0  0
    6.6430   12.6884   26.7949 C   0  0  0  0  0  0  0  0  0  0  0  0
    7.4003   12.1436   25.7421 C   0  0  0  0  0  0  0  0  0  0  0  0
   10.4822   13.3464   24.1289 N   0  0  0  0  0  0  0  0  0  0  0  0
   11.6689   13.7727   23.9121 C   0  0  0  0  0  0  0  0  0  0  0  0
   11.5780   12.9596   22.2289 C   0  0  0  0  0  0  0  0  0  0  0  0
   11.4901   14.1526   21.4008 C   0  0  0  0  0  0  0  0  0  0  0  0
   10.4956   14.6011   20.6165 N   0  0  0  0  0  0  0  0  0  0  0  0
   10.4068   15.8691   20.9876 C   0  0  0  0  0  0  0  0  0  0  0  0
    9.5393   16.8762   20.4648 C   0  0  0  0  0  0  0  0  0  0  0  0
    9.1231   16.6477   19.2056 C   0  0  0  0  0  0  0  0  0  0  0  0
    8.2634   17.5650   18.6267 C   0  0  0  0  0  0  0  0  0  0  0  0
    7.8637   18.7560   19.1566 C   0  0  0  0  0  0  0  0  0  0  0  0
    8.3525   19.0136   20.3829 C   0  0  0  0  0  0  0  0  0  0  0  0
    9.1391   18.0735   21.0356 C   0  0  0  0  0  0  0  0  0  0  0  0
   11.3071   16.2603   21.9283 O   0  0  0  0  0  0  0  0  0  0  0  0
   11.9340   15.1287   22.2160 C   0  0  0  0  0  0  0  0  0  0  0  0
   12.0379   14.4949   23.7812 C   0  0  0  0  0  0  0  0  0  0  0  0
  1  2  2  0
  2  3  1  0
  3  4  2  0
  4  5  1  0
  5  6  1  0
  6  7  1  0
  6  8  1  0
  6  9  1  0
  5 10  1  0
 10 11  2  0
 11 12  1  0
 12 13  2  0
 13 14  1  0
 14 15  2  0
  2 16  1  0
 16 17  1  0
 17 18  1  0
 18 19  1  0
 19 20  1  0
 20 21  2  0
 21 22  1  0
 22 23  2  0
 23 24  1  0
 24 25  2  0
 25 26  1  0
 26 27  2  0
 21 28  1  0
 28 29  1  0
 29 30  1  0
 15  3  1  0
 30 16  1  0
 15 10  1  0
 29 19  2  0
 27 22  1  0
M  END
>  <energy_score>  (192) 
813.930784

>  <fragmenstein_runtime>  (192) 
21.713737

>  <HIPPO Pose ID>  (192) 
503511

>  <fragmenstein_error>  (192) 


>  <alias>  (192) 
UTVYTMWHNABYGU-UHFFFAOYSA-N-P183-P126-P183-601502

>  <orig_smiles>  (192) 
O=C(c1nn(C(F)(F)F)c2ccccc12)N1CCc2nc(-c3ccccc3)oc2C1

>  <smiles>  (192) 
O=C(c1nn(C(F)(F)F)c2ccccc12)N1CCc2nc(-c3ccccc3)oc2C1

>  <inchikey>  (192) 
UTVYTMWHNABYGU-UHFFFAOYSA-N

>  <HIPPO Compound ID>  (192) 
289890

>  <fragmenstein_mode>  (192) 
expansion

>  <fragmenstein_outcome>  (192) 
too moved

>  <distance_score>  (192) 
1.801072

>  <subsites>  (192) 
None

>  <scratch_subdir>  (192) 
/opt/xchem-fragalysis-2/maxwin/BulkDock/SCRATCH/601502/UTVYTMWHNABYGU-UHFFFAOYSA-N-P183-P126-P183-601502

>  <inspiration_score>  (192) 
None

>  <name>  (192) 
UTVYTMWHNABYGU-UHFFFAOYSA-N-P183-P126-P183-601502

>  <ref_mols>  (192) 
A2290a,A3436a

>  <ref_pdb>  (192) 
A0514a

>  <exports>  (192) 
['/opt/xchem-fragalysis-2/maxwin/openbind-hippo/a71ev2a/cycle_01/syndirella/elabs/ASAP-0031281-001_elabs.sdf']

>  <Energy>  (192) 
1021.720578

>  <tags>  (192) 
fragmenstein_placed,a71ev2a_c1_elab_bulkdock_input

>  <GNINA pK>  (192) 
nan

$$$$
IKFAMCKKRXRBRT-UHFFFAOYSA-N-P126-P126-P183-601502
     RDKit          3D

 30 33  0  0  0  0  0  0  0  0999 V2000
   10.1519   14.1245   25.4258 O   0  0  0  0  0  0  0  0  0  0  0  0
   10.3189   13.3362   24.5882 C   0  0  0  0  0  0  0  0  0  0  0  0
   11.2904   13.3305   23.4173 N   0  0  0  0  0  0  0  0  0  0  0  0
   12.3204   14.2327   23.0748 C   0  0  0  0  0  0  0  0  0  0  0  0
   12.7005   14.1423   21.6300 C   0  0  0  0  0  0  0  0  0  0  0  0
   11.6722   14.5846   20.7058 C   0  0  0  0  0  0  0  0  0  0  0  0
   11.6799   14.4195   19.3496 C   0  0  0  0  0  0  0  0  0  0  0  0
   10.6361   15.0897   18.8591 O   0  0  0  0  0  0  0  0  0  0  0  0
   10.1116   15.7120   19.9363 C   0  0  0  0  0  0  0  0  0  0  0  0
    9.3231   16.8480   19.6077 C   0  0  0  0  0  0  0  0  0  0  0  0
    8.8297   17.6517   20.6149 C   0  0  0  0  0  0  0  0  0  0  0  0
    8.0842   18.7508   20.3079 C   0  0  0  0  0  0  0  0  0  0  0  0
    7.6964   18.9242   19.0167 C   0  0  0  0  0  0  0  0  0  0  0  0
    6.7813   19.8365   18.7385 F   0  0  0  0  0  0  0  0  0  0  0  0
    8.2130   18.1741   17.9912 C   0  0  0  0  0  0  0  0  0  0  0  0
    9.0887   17.1752   18.2816 C   0  0  0  0  0  0  0  0  0  0  0  0
   10.6168   15.3557   21.0931 N   0  0  0  0  0  0  0  0  0  0  0  0
    9.5964   12.0727   24.4899 C   0  0  0  0  0  0  0  0  0  0  0  0
   10.0511   11.1250   23.6511 N   0  0  0  0  0  0  0  0  0  0  0  0
    9.2609   10.0528   23.8753 N   0  0  0  0  0  0  0  0  0  0  0  0
    9.4832    8.8346   23.0784 C   0  0  0  0  0  0  0  0  0  0  0  0
   10.4136    8.0133   23.6113 F   0  0  0  0  0  0  0  0  0  0  0  0
    8.3508    8.1262   22.9400 F   0  0  0  0  0  0  0  0  0  0  0  0
    9.9363    9.1326   21.8360 F   0  0  0  0  0  0  0  0  0  0  0  0
    8.3022   10.3174   24.8376 C   0  0  0  0  0  0  0  0  0  0  0  0
    7.3042    9.5458   25.4263 C   0  0  0  0  0  0  0  0  0  0  0  0
    6.4522   10.1431   26.3614 C   0  0  0  0  0  0  0  0  0  0  0  0
    6.5929   11.4807   26.7092 C   0  0  0  0  0  0  0  0  0  0  0  0
    7.6065   12.2478   26.1411 C   0  0  0  0  0  0  0  0  0  0  0  0
    8.4684   11.6503   25.2048 C   0  0  0  0  0  0  0  0  0  0  0  0
  1  2  2  0
  2  3  1  0
  3  4  1  0
  4  5  1  0
  5  6  1  0
  6  7  2  0
  7  8  1  0
  8  9  1  0
  9 10  1  0
 10 11  2  0
 11 12  1  0
 12 13  2  0
 13 14  1  0
 13 15  1  0
 15 16  2  0
  9 17  2  0
  2 18  1  0
 18 19  2  0
 19 20  1  0
 20 21  1  0
 21 22  1  0
 21 23  1  0
 21 24  1  0
 20 25  1  0
 25 26  2  0
 26 27  1  0
 27 28  2  0
 28 29  1  0
 29 30  2  0
 17  6  1  0
 30 18  1  0
 16 10  1  0
 30 25  1  0
M  END
>  <energy_score>  (193) 
-13.841781

>  <fragmenstein_runtime>  (193) 
6.643048

>  <HIPPO Pose ID>  (193) 
503512

>  <fragmenstein_error>  (193) 


>  <alias>  (193) 
IKFAMCKKRXRBRT-UHFFFAOYSA-N-P126-P126-P183-601502

>  <orig_smiles>  (193) 
O=C(NCCc1coc(-c2ccc(F)cc2)n1)c1nn(C(F)(F)F)c2ccccc12

>  <smiles>  (193) 
O=C(NCCc1coc(-c2ccc(F)cc2)n1)c1nn(C(F)(F)F)c2ccccc12

>  <inchikey>  (193) 
IKFAMCKKRXRBRT-UHFFFAOYSA-N

>  <HIPPO Compound ID>  (193) 
289891

>  <fragmenstein_mode>  (193) 
expansion

>  <fragmenstein_outcome>  (193) 
acceptable

>  <distance_score>  (193) 
0.939908

>  <subsites>  (193) 
None

>  <scratch_subdir>  (193) 
/opt/xchem-fragalysis-2/maxwin/BulkDock/SCRATCH/601502/IKFAMCKKRXRBRT-UHFFFAOYSA-N-P126-P126-P183-601502

>  <inspiration_score>  (193) 
None

>  <name>  (193) 
IKFAMCKKRXRBRT-UHFFFAOYSA-N-P126-P126-P183-601502

>  <ref_mols>  (193) 
A2290a,A3436a

>  <ref_pdb>  (193) 
A0514a

>  <exports>  (193) 
['/opt/xchem-fragalysis-2/maxwin/openbind-hippo/a71ev2a/cycle_01/syndirella/elabs/openbind_a71ev2a_c1_elab_chemspace_filtered.sdf', '/opt/xchem-fragalysis-2/maxwin/BulkDock/OUTPUTS/a71ev2a_c1_elab_bulkdock_input_1GFT2LV.sdf', '/opt/xchem-fragalysis-2/maxwin/openbind-hippo/a71ev2a/cycle_01/syndirella/elabs/ASAP-0031281-001_elabs.sdf']

>  <Energy>  (193) 
183.688755

>  <tags>  (193) 
fragmenstein_placed,a71ev2a_c1_elab_bulkdock_input,BulkDock Fragalysis export,openbind_a71ev2a_c1_elabs_filtered

>  <GNINA pK>  (193) 
nan

$$$$
IKFAMCKKRXRBRT-UHFFFAOYSA-N-P183-P126-P183-601502
     RDKit          3D

 30 33  0  0  0  0  0  0  0  0999 V2000
   10.0265   14.4606   25.1180 O   0  0  0  0  0  0  0  0  0  0  0  0
   10.1603   13.6647   24.2818 C   0  0  0  0  0  0  0  0  0  0  0  0
   11.1226   13.6230   23.1020 N   0  0  0  0  0  0  0  0  0  0  0  0
   12.0634   14.5896   22.6379 C   0  0  0  0  0  0  0  0  0  0  0  0
   12.4345   14.3237   21.1942 C   0  0  0  0  0  0  0  0  0  0  0  0
   11.4006   14.6175   20.2164 C   0  0  0  0  0  0  0  0  0  0  0  0
   11.4906   14.7431   18.8541 C   0  0  0  0  0  0  0  0  0  0  0  0
   10.3877   15.4087   18.4460 O   0  0  0  0  0  0  0  0  0  0  0  0
    9.7212   15.5989   19.6005 C   0  0  0  0  0  0  0  0  0  0  0  0
    9.0694   16.8458   19.7085 C   0  0  0  0  0  0  0  0  0  0  0  0
    9.2367   17.4850   20.8821 C   0  0  0  0  0  0  0  0  0  0  0  0
    8.6717   18.7026   21.0159 C   0  0  0  0  0  0  0  0  0  0  0  0
    7.9055   19.2630   20.0349 C   0  0  0  0  0  0  0  0  0  0  0  0
    7.1414   20.2960   20.3062 F   0  0  0  0  0  0  0  0  0  0  0  0
    7.7348   18.6651   18.8518 C   0  0  0  0  0  0  0  0  0  0  0  0
    8.3545   17.4553   18.7082 C   0  0  0  0  0  0  0  0  0  0  0  0
   10.1549   14.9212   20.6295 N   0  0  0  0  0  0  0  0  0  0  0  0
    9.3937   12.4170   24.2455 C   0  0  0  0  0  0  0  0  0  0  0  0
    9.8141   11.3931   23.4841 N   0  0  0  0  0  0  0  0  0  0  0  0
    9.0948   10.3308   23.9168 N   0  0  0  0  0  0  0  0  0  0  0  0
    9.4835    8.9826   23.4808 C   0  0  0  0  0  0  0  0  0  0  0  0
    9.4138    8.8391   22.1407 F   0  0  0  0  0  0  0  0  0  0  0  0
   10.7630    8.6987   23.8224 F   0  0  0  0  0  0  0  0  0  0  0  0
    8.6904    8.0516   24.0422 F   0  0  0  0  0  0  0  0  0  0  0  0
    8.1278   10.6950   24.8403 C   0  0  0  0  0  0  0  0  0  0  0  0
    7.1691    9.9774   25.5657 C   0  0  0  0  0  0  0  0  0  0  0  0
    6.3158   10.6757   26.4253 C   0  0  0  0  0  0  0  0  0  0  0  0
    6.4140   12.0541   26.5652 C   0  0  0  0  0  0  0  0  0  0  0  0
    7.3838   12.7656   25.8594 C   0  0  0  0  0  0  0  0  0  0  0  0
    8.2558   12.0721   25.0004 C   0  0  0  0  0  0  0  0  0  0  0  0
  1  2  2  0
  2  3  1  0
  3  4  1  0
  4  5  1  0
  5  6  1  0
  6  7  2  0
  7  8  1  0
  8  9  1  0
  9 10  1  0
 10 11  2  0
 11 12  1  0
 12 13  2  0
 13 14  1  0
 13 15  1  0
 15 16  2  0
  9 17  2  0
  2 18  1  0
 18 19  2  0
 19 20  1  0
 20 21  1  0
 21 22  1  0
 21 23  1  0
 21 24  1  0
 20 25  1  0
 25 26  2  0
 26 27  1  0
 27 28  2  0
 28 29  1  0
 29 30  2  0
 17  6  1  0
 30 18  1  0
 16 10  1  0
 30 25  1  0
M  END
>  <energy_score>  (194) 
5.060684

>  <fragmenstein_runtime>  (194) 
6.223991

>  <HIPPO Pose ID>  (194) 
503513

>  <fragmenstein_error>  (194) 


>  <alias>  (194) 
IKFAMCKKRXRBRT-UHFFFAOYSA-N-P183-P126-P183-601502

>  <orig_smiles>  (194) 
O=C(NCCc1coc(-c2ccc(F)cc2)n1)c1nn(C(F)(F)F)c2ccccc12

>  <smiles>  (194) 
O=C(NCCc1coc(-c2ccc(F)cc2)n1)c1nn(C(F)(F)F)c2ccccc12

>  <inchikey>  (194) 
IKFAMCKKRXRBRT-UHFFFAOYSA-N

>  <HIPPO Compound ID>  (194) 
289891

>  <fragmenstein_mode>  (194) 
expansion

>  <fragmenstein_outcome>  (194) 
too contorted

>  <distance_score>  (194) 
0.884442

>  <subsites>  (194) 
None

>  <scratch_subdir>  (194) 
/opt/xchem-fragalysis-2/maxwin/BulkDock/SCRATCH/601502/IKFAMCKKRXRBRT-UHFFFAOYSA-N-P183-P126-P183-601502

>  <inspiration_score>  (194) 
None

>  <name>  (194) 
IKFAMCKKRXRBRT-UHFFFAOYSA-N-P183-P126-P183-601502

>  <ref_mols>  (194) 
A2290a,A3436a

>  <ref_pdb>  (194) 
A0514a

>  <exports>  (194) 
['/opt/xchem-fragalysis-2/maxwin/openbind-hippo/a71ev2a/cycle_01/bulkdock/openbind_a71ev2a_c1_elab_chemspace.sdf', '/opt/xchem-fragalysis-2/maxwin/openbind-hippo/a71ev2a/cycle_01/syndirella/elabs/ASAP-0031281-001_elabs.sdf']

>  <Energy>  (194) 
202.591221

>  <tags>  (194) 
fragmenstein_placed,a71ev2a_c1_elab_bulkdock_input

>  <GNINA pK>  (194) 
nan

$$$$
GBQBFWSOOYJIDV-UHFFFAOYSA-N-P126-P126-P183-601502
     RDKit          3D

 30 33  0  0  0  0  0  0  0  0999 V2000
    3.3986   12.5090   28.9712 C   0  0  0  0  0  0  0  0  0  0  0  0
    4.2676   11.8615   28.0408 O   0  0  0  0  0  0  0  0  0  0  0  0
    5.4924   12.4404   27.9477 C   0  0  0  0  0  0  0  0  0  0  0  0
    5.8825   13.4064   28.5826 O   0  0  0  0  0  0  0  0  0  0  0  0
    6.3194   11.7323   26.9406 C   0  0  0  0  0  0  0  0  0  0  0  0
    6.1023   10.3887   26.6288 C   0  0  0  0  0  0  0  0  0  0  0  0
    6.9032    9.7276   25.6938 C   0  0  0  0  0  0  0  0  0  0  0  0
    7.9268   10.4420   25.0747 C   0  0  0  0  0  0  0  0  0  0  0  0
    8.1668   11.7758   25.3795 C   0  0  0  0  0  0  0  0  0  0  0  0
    7.3649   12.4359   26.3284 C   0  0  0  0  0  0  0  0  0  0  0  0
    9.2939   12.1182   24.6060 C   0  0  0  0  0  0  0  0  0  0  0  0
   10.0718   13.3558   24.6592 C   0  0  0  0  0  0  0  0  0  0  0  0
    9.9355   14.1539   25.4936 O   0  0  0  0  0  0  0  0  0  0  0  0
   11.0695   13.2877   23.5105 N   0  0  0  0  0  0  0  0  0  0  0  0
   12.1674   14.1262   23.1922 C   0  0  0  0  0  0  0  0  0  0  0  0
   12.5952   14.0449   21.7560 C   0  0  0  0  0  0  0  0  0  0  0  0
   11.6270   14.5524   20.7923 C   0  0  0  0  0  0  0  0  0  0  0  0
   11.6890   14.4135   19.4332 C   0  0  0  0  0  0  0  0  0  0  0  0
   10.6822   15.1146   18.9044 O   0  0  0  0  0  0  0  0  0  0  0  0
   10.1168   15.7294   19.9684 C   0  0  0  0  0  0  0  0  0  0  0  0
    9.3199   16.8593   19.6224 C   0  0  0  0  0  0  0  0  0  0  0  0
    9.0811   17.1815   18.2963 C   0  0  0  0  0  0  0  0  0  0  0  0
    8.2004   18.1813   17.9956 C   0  0  0  0  0  0  0  0  0  0  0  0
    7.6656   18.9465   19.0070 C   0  0  0  0  0  0  0  0  0  0  0  0
    8.0665   18.7646   20.2986 C   0  0  0  0  0  0  0  0  0  0  0  0
    8.8164   17.6691   20.6168 C   0  0  0  0  0  0  0  0  0  0  0  0
   10.5788   15.3545   21.1407 N   0  0  0  0  0  0  0  0  0  0  0  0
    9.6786   11.1088   23.7993 N   0  0  0  0  0  0  0  0  0  0  0  0
    8.8747   10.0959   24.1418 N   0  0  0  0  0  0  0  0  0  0  0  0
    9.1514    8.7860   23.6067 C   0  0  0  0  0  0  0  0  0  0  0  0
  1  2  1  0
  2  3  1  0
  3  4  2  0
  3  5  1  0
  5  6  2  0
  6  7  1  0
  7  8  2  0
  8  9  1  0
  9 10  2  0
  9 11  1  0
 11 12  1  0
 12 13  2  0
 12 14  1  0
 14 15  1  0
 15 16  1  0
 16 17  1  0
 17 18  2  0
 18 19  1  0
 19 20  1  0
 20 21  1  0
 21 22  2  0
 22 23  1  0
 23 24  2  0
 24 25  1  0
 25 26  2  0
 20 27  2  0
 11 28  2  0
 28 29  1  0
 29 30  1  0
 10  5  1  0
 27 17  1  0
 29  8  1  0
 26 21  1  0
M  END
>  <energy_score>  (195) 
-23.986826

>  <fragmenstein_runtime>  (195) 
6.437122

>  <HIPPO Pose ID>  (195) 
503514

>  <fragmenstein_error>  (195) 


>  <alias>  (195) 
GBQBFWSOOYJIDV-UHFFFAOYSA-N-P126-P126-P183-601502

>  <orig_smiles>  (195) 
COC(=O)c1ccc2c(c1)c(C(=O)NCCc1coc(-c3ccccc3)n1)nn2C

>  <smiles>  (195) 
COC(=O)c1ccc2c(c1)c(C(=O)NCCc1coc(-c3ccccc3)n1)nn2C

>  <inchikey>  (195) 
GBQBFWSOOYJIDV-UHFFFAOYSA-N

>  <HIPPO Compound ID>  (195) 
289892

>  <fragmenstein_mode>  (195) 
expansion

>  <fragmenstein_outcome>  (195) 
too moved

>  <distance_score>  (195) 
1.041365

>  <subsites>  (195) 
None

>  <scratch_subdir>  (195) 
/opt/xchem-fragalysis-2/maxwin/BulkDock/SCRATCH/601502/GBQBFWSOOYJIDV-UHFFFAOYSA-N-P126-P126-P183-601502

>  <inspiration_score>  (195) 
None

>  <name>  (195) 
GBQBFWSOOYJIDV-UHFFFAOYSA-N-P126-P126-P183-601502

>  <ref_mols>  (195) 
A2290a,A3436a

>  <ref_pdb>  (195) 
A0514a

>  <exports>  (195) 
['/opt/xchem-fragalysis-2/maxwin/openbind-hippo/a71ev2a/cycle_01/syndirella/elabs/openbind_a71ev2a_c1_elab_chemspace_filtered.sdf', '/opt/xchem-fragalysis-2/maxwin/openbind-hippo/a71ev2a/cycle_01/syndirella/elabs/ASAP-0031281-001_elabs.sdf']

>  <Energy>  (195) 
120.106791

>  <tags>  (195) 
fragmenstein_placed,openbind_a71ev2a_c1_elabs_filtered,a71ev2a_c1_elab_bulkdock_input

>  <GNINA pK>  (195) 
nan

$$$$
GBQBFWSOOYJIDV-UHFFFAOYSA-N-P183-P126-P183-601502
     RDKit          3D

 30 33  0  0  0  0  0  0  0  0999 V2000
    3.3583   12.7832   28.5551 C   0  0  0  0  0  0  0  0  0  0  0  0
    4.2788   12.0911   27.7103 O   0  0  0  0  0  0  0  0  0  0  0  0
    5.4442   12.7603   27.5153 C   0  0  0  0  0  0  0  0  0  0  0  0
    5.7510   13.8309   28.0131 O   0  0  0  0  0  0  0  0  0  0  0  0
    6.3279   12.0008   26.5979 C   0  0  0  0  0  0  0  0  0  0  0  0
    6.2233   10.6157   26.4588 C   0  0  0  0  0  0  0  0  0  0  0  0
    7.0771    9.9122   25.6029 C   0  0  0  0  0  0  0  0  0  0  0  0
    8.0428   10.6236   24.8859 C   0  0  0  0  0  0  0  0  0  0  0  0
    8.1861   11.9984   25.0405 C   0  0  0  0  0  0  0  0  0  0  0  0
    7.3198   12.7026   25.8994 C   0  0  0  0  0  0  0  0  0  0  0  0
    9.3196   12.3286   24.2651 C   0  0  0  0  0  0  0  0  0  0  0  0
   10.0628   13.5930   24.2555 C   0  0  0  0  0  0  0  0  0  0  0  0
    9.9543   14.3821   25.1022 O   0  0  0  0  0  0  0  0  0  0  0  0
   10.9526   13.5860   23.0192 N   0  0  0  0  0  0  0  0  0  0  0  0
   11.9695   14.4986   22.6011 C   0  0  0  0  0  0  0  0  0  0  0  0
   12.3642   14.2632   21.1561 C   0  0  0  0  0  0  0  0  0  0  0  0
   11.3480   14.5847   20.1614 C   0  0  0  0  0  0  0  0  0  0  0  0
   11.4720   14.7902   18.8116 C   0  0  0  0  0  0  0  0  0  0  0  0
   10.3710   15.4689   18.4125 O   0  0  0  0  0  0  0  0  0  0  0  0
    9.6584   15.5684   19.5519 C   0  0  0  0  0  0  0  0  0  0  0  0
    9.0310   16.8219   19.7457 C   0  0  0  0  0  0  0  0  0  0  0  0
    8.3286   17.5368   18.8032 C   0  0  0  0  0  0  0  0  0  0  0  0
    7.7956   18.7731   19.0378 C   0  0  0  0  0  0  0  0  0  0  0  0
    8.0961   19.3234   20.2324 C   0  0  0  0  0  0  0  0  0  0  0  0
    8.8448   18.6356   21.1534 C   0  0  0  0  0  0  0  0  0  0  0  0
    9.2647   17.3712   20.9514 C   0  0  0  0  0  0  0  0  0  0  0  0
   10.0732   14.8176   20.5405 N   0  0  0  0  0  0  0  0  0  0  0  0
    9.7441   11.2794   23.5363 N   0  0  0  0  0  0  0  0  0  0  0  0
    8.9935   10.2530   23.9610 N   0  0  0  0  0  0  0  0  0  0  0  0
    9.3049    8.9369   23.4510 C   0  0  0  0  0  0  0  0  0  0  0  0
  1  2  1  0
  2  3  1  0
  3  4  2  0
  3  5  1  0
  5  6  2  0
  6  7  1  0
  7  8  2  0
  8  9  1  0
  9 10  2  0
  9 11  1  0
 11 12  1  0
 12 13  2  0
 12 14  1  0
 14 15  1  0
 15 16  1  0
 16 17  1  0
 17 18  2  0
 18 19  1  0
 19 20  1  0
 20 21  1  0
 21 22  2  0
 22 23  1  0
 23 24  2  0
 24 25  1  0
 25 26  2  0
 20 27  2  0
 11 28  2  0
 28 29  1  0
 29 30  1  0
 10  5  1  0
 27 17  1  0
 29  8  1  0
 26 21  1  0
M  END
>  <energy_score>  (196) 
0.075495

>  <fragmenstein_runtime>  (196) 
10.877168

>  <HIPPO Pose ID>  (196) 
503515

>  <fragmenstein_error>  (196) 


>  <alias>  (196) 
GBQBFWSOOYJIDV-UHFFFAOYSA-N-P183-P126-P183-601502

>  <orig_smiles>  (196) 
COC(=O)c1ccc2c(c1)c(C(=O)NCCc1coc(-c3ccccc3)n1)nn2C

>  <smiles>  (196) 
COC(=O)c1ccc2c(c1)c(C(=O)NCCc1coc(-c3ccccc3)n1)nn2C

>  <inchikey>  (196) 
GBQBFWSOOYJIDV-UHFFFAOYSA-N

>  <HIPPO Compound ID>  (196) 
289892

>  <fragmenstein_mode>  (196) 
expansion

>  <fragmenstein_outcome>  (196) 
too contorted

>  <distance_score>  (196) 
0.899967

>  <subsites>  (196) 
None

>  <scratch_subdir>  (196) 
/opt/xchem-fragalysis-2/maxwin/BulkDock/SCRATCH/601502/GBQBFWSOOYJIDV-UHFFFAOYSA-N-P183-P126-P183-601502

>  <inspiration_score>  (196) 
None

>  <name>  (196) 
GBQBFWSOOYJIDV-UHFFFAOYSA-N-P183-P126-P183-601502

>  <ref_mols>  (196) 
A2290a,A3436a

>  <ref_pdb>  (196) 
A0514a

>  <exports>  (196) 
['/opt/xchem-fragalysis-2/maxwin/openbind-hippo/a71ev2a/cycle_01/bulkdock/openbind_a71ev2a_c1_elab_chemspace.sdf', '/opt/xchem-fragalysis-2/maxwin/openbind-hippo/a71ev2a/cycle_01/syndirella/elabs/ASAP-0031281-001_elabs.sdf']

>  <Energy>  (196) 
144.169112

>  <tags>  (196) 
fragmenstein_placed,a71ev2a_c1_elab_bulkdock_input

>  <GNINA pK>  (196) 
nan

$$$$
PXGSLGXBTMPAMH-UHFFFAOYSA-N-P126-P126-P183-601502
     RDKit          3D

 30 33  0  0  0  0  0  0  0  0999 V2000
    5.0776    9.8764   27.4554 C   0  0  0  0  0  0  0  0  0  0  0  0
    6.1079   10.2033   26.5250 O   0  0  0  0  0  0  0  0  0  0  0  0
    6.8485   11.3023   26.8674 C   0  0  0  0  0  0  0  0  0  0  0  0
    6.6151   11.9845   27.8625 O   0  0  0  0  0  0  0  0  0  0  0  0
    7.9900   11.5266   25.9680 C   0  0  0  0  0  0  0  0  0  0  0  0
    8.7688   12.6157   26.0848 N   0  0  0  0  0  0  0  0  0  0  0  0
    9.7596   12.4485   25.1790 N   0  0  0  0  0  0  0  0  0  0  0  0
   10.8956   13.3507   25.3239 C   0  0  0  0  0  0  0  0  0  0  0  0
   12.1302   13.0588   24.4980 C   0  0  0  0  0  0  0  0  0  0  0  0
   13.0875   12.5079   24.8535 O   0  0  0  0  0  0  0  0  0  0  0  0
   11.7969   13.6956   23.1515 N   0  0  0  0  0  0  0  0  0  0  0  0
   12.5964   13.8744   21.9913 C   0  0  0  0  0  0  0  0  0  0  0  0
   11.9405   14.8901   21.0725 C   0  0  0  0  0  0  0  0  0  0  0  0
   10.4512   14.8944   21.1088 C   0  0  0  0  0  0  0  0  0  0  0  0
    9.5301   15.0694   20.1199 C   0  0  0  0  0  0  0  0  0  0  0  0
    8.2913   14.8778   20.6738 O   0  0  0  0  0  0  0  0  0  0  0  0
    8.4975   14.7628   22.0104 C   0  0  0  0  0  0  0  0  0  0  0  0
    7.3588   14.6921   22.9466 C   0  0  0  0  0  0  0  0  0  0  0  0
    7.6057   14.7043   24.3326 C   0  0  0  0  0  0  0  0  0  0  0  0
    6.6087   14.5916   25.3081 C   0  0  0  0  0  0  0  0  0  0  0  0
    5.2979   14.4915   24.9098 C   0  0  0  0  0  0  0  0  0  0  0  0
    5.0118   14.5567   23.5469 C   0  0  0  0  0  0  0  0  0  0  0  0
    6.0256   14.6343   22.5720 C   0  0  0  0  0  0  0  0  0  0  0  0
    9.7763   14.7488   22.3129 N   0  0  0  0  0  0  0  0  0  0  0  0
    9.5499   11.3758   24.3617 C   0  0  0  0  0  0  0  0  0  0  0  0
   10.2073   10.8984   23.2299 C   0  0  0  0  0  0  0  0  0  0  0  0
    9.8970    9.6334   22.7764 C   0  0  0  0  0  0  0  0  0  0  0  0
    8.9247    8.8949   23.4068 C   0  0  0  0  0  0  0  0  0  0  0  0
    8.2099    9.3987   24.4910 C   0  0  0  0  0  0  0  0  0  0  0  0
    8.5015   10.6788   24.9557 C   0  0  0  0  0  0  0  0  0  0  0  0
  1  2  1  0
  2  3  1  0
  3  4  2  0
  3  5  1  0
  5  6  2  0
  6  7  1  0
  7  8  1  0
  8  9  1  0
  9 10  2  0
  9 11  1  0
 11 12  1  0
 12 13  1  0
 13 14  1  0
 14 15  2  0
 15 16  1  0
 16 17  1  0
 17 18  1  0
 18 19  2  0
 19 20  1  0
 20 21  2  0
 21 22  1  0
 22 23  2  0
 17 24  2  0
  7 25  1  0
 25 26  2  0
 26 27  1  0
 27 28  2  0
 28 29  1  0
 29 30  2  0
 30  5  1  0
 24 14  1  0
 30 25  1  0
 23 18  1  0
M  END
>  <energy_score>  (197) 
-5.483856

>  <fragmenstein_runtime>  (197) 
14.063627

>  <HIPPO Pose ID>  (197) 
503516

>  <fragmenstein_error>  (197) 


>  <alias>  (197) 
PXGSLGXBTMPAMH-UHFFFAOYSA-N-P126-P126-P183-601502

>  <orig_smiles>  (197) 
COC(=O)c1nn(CC(=O)NCCc2coc(-c3ccccc3)n2)c2ccccc12

>  <smiles>  (197) 
COC(=O)c1nn(CC(=O)NCCc2coc(-c3ccccc3)n2)c2ccccc12

>  <inchikey>  (197) 
PXGSLGXBTMPAMH-UHFFFAOYSA-N

>  <HIPPO Compound ID>  (197) 
289893

>  <fragmenstein_mode>  (197) 
expansion

>  <fragmenstein_outcome>  (197) 
too moved

>  <distance_score>  (197) 
2.527804

>  <subsites>  (197) 
None

>  <scratch_subdir>  (197) 
/opt/xchem-fragalysis-2/maxwin/BulkDock/SCRATCH/601502/PXGSLGXBTMPAMH-UHFFFAOYSA-N-P126-P126-P183-601502

>  <inspiration_score>  (197) 
None

>  <name>  (197) 
PXGSLGXBTMPAMH-UHFFFAOYSA-N-P126-P126-P183-601502

>  <ref_mols>  (197) 
A2290a,A3436a

>  <ref_pdb>  (197) 
A0514a

>  <exports>  (197) 
['/opt/xchem-fragalysis-2/maxwin/openbind-hippo/a71ev2a/cycle_01/bulkdock/openbind_a71ev2a_c1_elab_chemspace.sdf', '/opt/xchem-fragalysis-2/maxwin/openbind-hippo/a71ev2a/cycle_01/syndirella/elabs/ASAP-0031281-001_elabs.sdf']

>  <Energy>  (197) 
143.039588

>  <tags>  (197) 
fragmenstein_placed,a71ev2a_c1_elab_bulkdock_input

>  <GNINA pK>  (197) 
nan

$$$$
PXGSLGXBTMPAMH-UHFFFAOYSA-N-P183-P126-P183-601502
     RDKit          3D

 30 33  0  0  0  0  0  0  0  0999 V2000
    6.5117   13.2948   28.7522 C   0  0  0  0  0  0  0  0  0  0  0  0
    5.5445   12.5708   27.9890 O   0  0  0  0  0  0  0  0  0  0  0  0
    5.9452   11.7093   27.0003 C   0  0  0  0  0  0  0  0  0  0  0  0
    5.3419   10.6466   26.8640 O   0  0  0  0  0  0  0  0  0  0  0  0
    7.1046   12.0597   26.1533 C   0  0  0  0  0  0  0  0  0  0  0  0
    7.6851   13.2730   26.1109 N   0  0  0  0  0  0  0  0  0  0  0  0
    8.7470   13.1177   25.2854 N   0  0  0  0  0  0  0  0  0  0  0  0
    9.8173   14.1019   25.3926 C   0  0  0  0  0  0  0  0  0  0  0  0
   10.6468   14.2583   24.1400 C   0  0  0  0  0  0  0  0  0  0  0  0
   11.8278   14.0744   24.1324 O   0  0  0  0  0  0  0  0  0  0  0  0
    9.7512   14.5771   23.0898 N   0  0  0  0  0  0  0  0  0  0  0  0
    9.9852   14.8712   21.7092 C   0  0  0  0  0  0  0  0  0  0  0  0
    8.7066   15.4703   21.1026 C   0  0  0  0  0  0  0  0  0  0  0  0
    7.4302   15.1309   21.8461 C   0  0  0  0  0  0  0  0  0  0  0  0
    6.3027   14.4500   21.4757 C   0  0  0  0  0  0  0  0  0  0  0  0
    5.4084   14.4546   22.4886 O   0  0  0  0  0  0  0  0  0  0  0  0
    6.0492   15.0990   23.5025 C   0  0  0  0  0  0  0  0  0  0  0  0
    5.3192   15.2028   24.7612 C   0  0  0  0  0  0  0  0  0  0  0  0
    4.1450   14.4725   24.9936 C   0  0  0  0  0  0  0  0  0  0  0  0
    3.4875   14.5316   26.2229 C   0  0  0  0  0  0  0  0  0  0  0  0
    3.9831   15.3471   27.2329 C   0  0  0  0  0  0  0  0  0  0  0  0
    5.1340   16.0982   27.0124 C   0  0  0  0  0  0  0  0  0  0  0  0
    5.7998   16.0189   25.7884 C   0  0  0  0  0  0  0  0  0  0  0  0
    7.2728   15.4805   23.1847 N   0  0  0  0  0  0  0  0  0  0  0  0
    8.7841   11.9046   24.6530 C   0  0  0  0  0  0  0  0  0  0  0  0
    9.6065   11.3655   23.6511 C   0  0  0  0  0  0  0  0  0  0  0  0
    9.5011   10.0066   23.3874 C   0  0  0  0  0  0  0  0  0  0  0  0
    8.6279    9.2215   24.1118 C   0  0  0  0  0  0  0  0  0  0  0  0
    7.7666    9.7786   25.0637 C   0  0  0  0  0  0  0  0  0  0  0  0
    7.8181   11.1537   25.3121 C   0  0  0  0  0  0  0  0  0  0  0  0
  1  2  1  0
  2  3  1  0
  3  4  2  0
  3  5  1  0
  5  6  2  0
  6  7  1  0
  7  8  1  0
  8  9  1  0
  9 10  2  0
  9 11  1  0
 11 12  1  0
 12 13  1  0
 13 14  1  0
 14 15  2  0
 15 16  1  0
 16 17  1  0
 17 18  1  0
 18 19  2  0
 19 20  1  0
 20 21  2  0
 21 22  1  0
 22 23  2  0
 17 24  2  0
  7 25  1  0
 25 26  2  0
 26 27  1  0
 27 28  2  0
 28 29  1  0
 29 30  2  0
 30  5  1  0
 24 14  1  0
 30 25  1  0
 23 18  1  0
M  END
>  <energy_score>  (198) 
-4.883835

>  <fragmenstein_runtime>  (198) 
20.368025

>  <HIPPO Pose ID>  (198) 
503517

>  <fragmenstein_error>  (198) 


>  <alias>  (198) 
PXGSLGXBTMPAMH-UHFFFAOYSA-N-P183-P126-P183-601502

>  <orig_smiles>  (198) 
COC(=O)c1nn(CC(=O)NCCc2coc(-c3ccccc3)n2)c2ccccc12

>  <smiles>  (198) 
COC(=O)c1nn(CC(=O)NCCc2coc(-c3ccccc3)n2)c2ccccc12

>  <inchikey>  (198) 
PXGSLGXBTMPAMH-UHFFFAOYSA-N

>  <HIPPO Compound ID>  (198) 
289893

>  <fragmenstein_mode>  (198) 
expansion

>  <fragmenstein_outcome>  (198) 
too moved

>  <distance_score>  (198) 
3.649533

>  <subsites>  (198) 
None

>  <scratch_subdir>  (198) 
/opt/xchem-fragalysis-2/maxwin/BulkDock/SCRATCH/601502/PXGSLGXBTMPAMH-UHFFFAOYSA-N-P183-P126-P183-601502

>  <inspiration_score>  (198) 
None

>  <name>  (198) 
PXGSLGXBTMPAMH-UHFFFAOYSA-N-P183-P126-P183-601502

>  <ref_mols>  (198) 
A2290a,A3436a

>  <ref_pdb>  (198) 
A0514a

>  <exports>  (198) 
['/opt/xchem-fragalysis-2/maxwin/openbind-hippo/a71ev2a/cycle_01/syndirella/elabs/ASAP-0031281-001_elabs.sdf']

>  <Energy>  (198) 
131.324156

>  <tags>  (198) 
fragmenstein_placed,a71ev2a_c1_elab_bulkdock_input

>  <GNINA pK>  (198) 
nan

$$$$
BMRKSVKHVNSEEK-UHFFFAOYSA-N-P126-P126-P183-601502
     RDKit          3D

 30 33  0  0  0  0  0  0  0  0999 V2000
   12.1663   15.7912   22.6184 C   0  0  0  0  0  0  0  0  0  0  0  0
   13.2141   14.8517   22.6109 O   0  0  0  0  0  0  0  0  0  0  0  0
   12.7344   13.6148   22.7733 C   0  0  0  0  0  0  0  0  0  0  0  0
   13.1289   12.8592   23.6607 O   0  0  0  0  0  0  0  0  0  0  0  0
   11.6751   13.2794   21.7517 C   0  0  2  0  0  0  0  0  0  0  0  0
   11.5748   14.1956   20.4842 C   0  0  0  0  0  0  0  0  0  0  0  0
   10.4019   15.1001   20.2809 C   0  0  0  0  0  0  0  0  0  0  0  0
   10.1767   15.8846   19.1715 C   0  0  0  0  0  0  0  0  0  0  0  0
    9.2784   16.8458   19.4901 O   0  0  0  0  0  0  0  0  0  0  0  0
    8.9246   16.5352   20.7606 C   0  0  0  0  0  0  0  0  0  0  0  0
    9.5132   15.4677   21.2584 N   0  0  0  0  0  0  0  0  0  0  0  0
   10.5078   12.8953   22.5043 N   0  0  0  0  0  0  0  0  0  0  0  0
    9.9701   13.4140   23.8600 C   0  0  0  0  0  0  0  0  0  0  0  0
   10.3461   14.2853   24.5396 O   0  0  0  0  0  0  0  0  0  0  0  0
    8.8929   12.5307   24.2627 C   0  0  0  0  0  0  0  0  0  0  0  0
    8.6979   11.4495   23.5067 N   0  0  0  0  0  0  0  0  0  0  0  0
    8.2177   10.5817   24.3756 N   0  0  0  0  0  0  0  0  0  0  0  0
    8.6096    9.2189   24.2188 C   0  0  0  0  0  0  0  0  0  0  0  0
   10.0032    9.0977   23.6045 C   0  0  1  0  0  0  0  0  0  0  0  0
   10.2651    7.6493   23.4636 C   0  0  0  0  0  0  0  0  0  0  0  0
    9.3824    7.4227   22.4071 N   0  0  0  0  0  0  0  0  0  0  0  0
    9.6657    8.4141   21.5421 C   0  0  0  0  0  0  0  0  0  0  0  0
    9.6387    8.2400   20.3379 O   0  0  0  0  0  0  0  0  0  0  0  0
   10.0577    9.5083   22.2311 O   0  0  0  0  0  0  0  0  0  0  0  0
    7.6078   11.1549   25.4432 C   0  0  0  0  0  0  0  0  0  0  0  0
    6.7854   10.6356   26.4414 C   0  0  0  0  0  0  0  0  0  0  0  0
    6.4080   11.5211   27.4475 C   0  0  0  0  0  0  0  0  0  0  0  0
    6.8730   12.8387   27.4651 C   0  0  0  0  0  0  0  0  0  0  0  0
    7.7255   13.3269   26.4671 C   0  0  0  0  0  0  0  0  0  0  0  0
    8.0693   12.4727   25.4135 C   0  0  0  0  0  0  0  0  0  0  0  0
  1  2  1  0
  2  3  1  0
  3  4  2  0
  3  5  1  0
  5  6  1  1
  6  7  1  0
  7  8  2  0
  8  9  1  0
  9 10  1  0
 10 11  2  0
  5 12  1  0
 12 13  1  0
 13 14  2  0
 13 15  1  0
 15 16  2  0
 16 17  1  0
 17 18  1  0
 19 18  1  6
 19 20  1  0
 20 21  1  0
 21 22  1  0
 22 23  2  0
 22 24  1  0
 17 25  1  0
 25 26  2  0
 26 27  1  0
 27 28  2  0
 28 29  1  0
 29 30  2  0
 11  7  1  0
 30 15  1  0
 24 19  1  0
 30 25  1  0
M  END
>  <energy_score>  (199) 
23.599243

>  <fragmenstein_runtime>  (199) 
8.410999

>  <HIPPO Pose ID>  (199) 
503518

>  <fragmenstein_error>  (199) 


>  <alias>  (199) 
BMRKSVKHVNSEEK-UHFFFAOYSA-N-P126-P126-P183-601502

>  <orig_smiles>  (199) 
COC(=O)C(Cc1cocn1)NC(=O)c1nn(CC2CNC(=O)O2)c2ccccc12

>  <smiles>  (199) 
COC(=O)C(Cc1cocn1)NC(=O)c1nn(CC2CNC(=O)O2)c2ccccc12

>  <inchikey>  (199) 
BMRKSVKHVNSEEK-UHFFFAOYSA-N

>  <HIPPO Compound ID>  (199) 
289894

>  <fragmenstein_mode>  (199) 
expansion

>  <fragmenstein_outcome>  (199) 
too moved

>  <distance_score>  (199) 
1.123241

>  <subsites>  (199) 
None

>  <scratch_subdir>  (199) 
/opt/xchem-fragalysis-2/maxwin/BulkDock/SCRATCH/601502/BMRKSVKHVNSEEK-UHFFFAOYSA-N-P126-P126-P183-601502

>  <inspiration_score>  (199) 
None

>  <name>  (199) 
BMRKSVKHVNSEEK-UHFFFAOYSA-N-P126-P126-P183-601502

>  <ref_mols>  (199) 
A2290a,A3436a

>  <ref_pdb>  (199) 
A0514a

>  <exports>  (199) 
['/opt/xchem-fragalysis-2/maxwin/openbind-hippo/a71ev2a/cycle_01/bulkdock/openbind_a71ev2a_c1_elab_chemspace.sdf', '/opt/xchem-fragalysis-2/maxwin/openbind-hippo/a71ev2a/cycle_01/syndirella/elabs/ASAP-0031281-001_elabs.sdf']

>  <Energy>  (199) 
120.518768

>  <tags>  (199) 
fragmenstein_placed,a71ev2a_c1_elab_bulkdock_input

>  <GNINA pK>  (199) 
nan

$$$$
BMRKSVKHVNSEEK-UHFFFAOYSA-N-P183-P126-P183-601502
     RDKit          3D

 30 33  0  0  0  0  0  0  0  0999 V2000
   12.0810   15.8903   22.7154 C   0  0  0  0  0  0  0  0  0  0  0  0
   13.0513   14.9069   22.9474 O   0  0  0  0  0  0  0  0  0  0  0  0
   12.5132   13.6915   23.0460 C   0  0  0  0  0  0  0  0  0  0  0  0
   12.8060   12.9228   23.9612 O   0  0  0  0  0  0  0  0  0  0  0  0
   11.5711   13.3819   21.9118 C   0  0  2  0  0  0  0  0  0  0  0  0
   11.6619   14.2192   20.6202 C   0  0  0  0  0  0  0  0  0  0  0  0
   10.5278   15.0979   20.2571 C   0  0  0  0  0  0  0  0  0  0  0  0
   10.3434   15.6852   19.0347 C   0  0  0  0  0  0  0  0  0  0  0  0
    9.3831   16.6335   19.1577 O   0  0  0  0  0  0  0  0  0  0  0  0
    9.0037   16.5516   20.4596 C   0  0  0  0  0  0  0  0  0  0  0  0
    9.6133   15.6121   21.1441 N   0  0  0  0  0  0  0  0  0  0  0  0
   10.3431   13.0609   22.5725 N   0  0  0  0  0  0  0  0  0  0  0  0
    9.6867   13.6800   23.8285 C   0  0  0  0  0  0  0  0  0  0  0  0
   10.0060   14.5974   24.4739 O   0  0  0  0  0  0  0  0  0  0  0  0
    8.5732   12.8331   24.1864 C   0  0  0  0  0  0  0  0  0  0  0  0
    8.4912   11.6817   23.5203 N   0  0  0  0  0  0  0  0  0  0  0  0
    8.0005   10.8681   24.4277 N   0  0  0  0  0  0  0  0  0  0  0  0
    8.4892    9.5368   24.4656 C   0  0  0  0  0  0  0  0  0  0  0  0
    9.8054    9.3018   23.7572 C   0  0  1  0  0  0  0  0  0  0  0  0
    9.9217    7.8299   23.6667 C   0  0  0  0  0  0  0  0  0  0  0  0
    9.0893    7.6125   22.5757 N   0  0  0  0  0  0  0  0  0  0  0  0
    9.4401    8.5867   21.7162 C   0  0  0  0  0  0  0  0  0  0  0  0
    9.4484    8.4156   20.5149 O   0  0  0  0  0  0  0  0  0  0  0  0
    9.8314    9.6839   22.3901 O   0  0  0  0  0  0  0  0  0  0  0  0
    7.3038   11.4947   25.4117 C   0  0  0  0  0  0  0  0  0  0  0  0
    6.4631   11.0067   26.4116 C   0  0  0  0  0  0  0  0  0  0  0  0
    5.9982   11.9416   27.3306 C   0  0  0  0  0  0  0  0  0  0  0  0
    6.3950   13.2796   27.2631 C   0  0  0  0  0  0  0  0  0  0  0  0
    7.2576   13.7399   26.2596 C   0  0  0  0  0  0  0  0  0  0  0  0
    7.6882   12.8298   25.2890 C   0  0  0  0  0  0  0  0  0  0  0  0
  1  2  1  0
  2  3  1  0
  3  4  2  0
  3  5  1  0
  5  6  1  6
  6  7  1  0
  7  8  2  0
  8  9  1  0
  9 10  1  0
 10 11  2  0
  5 12  1  0
 12 13  1  0
 13 14  2  0
 13 15  1  0
 15 16  2  0
 16 17  1  0
 17 18  1  0
 19 18  1  6
 19 20  1  0
 20 21  1  0
 21 22  1  0
 22 23  2  0
 22 24  1  0
 17 25  1  0
 25 26  2  0
 26 27  1  0
 27 28  2  0
 28 29  1  0
 29 30  2  0
 11  7  1  0
 30 15  1  0
 24 19  1  0
 30 25  1  0
M  END
>  <energy_score>  (200) 
26.615833

>  <fragmenstein_runtime>  (200) 
10.323179

>  <HIPPO Pose ID>  (200) 
503519

>  <fragmenstein_error>  (200) 


>  <alias>  (200) 
BMRKSVKHVNSEEK-UHFFFAOYSA-N-P183-P126-P183-601502

>  <orig_smiles>  (200) 
COC(=O)C(Cc1cocn1)NC(=O)c1nn(CC2CNC(=O)O2)c2ccccc12

>  <smiles>  (200) 
COC(=O)C(Cc1cocn1)NC(=O)c1nn(CC2CNC(=O)O2)c2ccccc12

>  <inchikey>  (200) 
BMRKSVKHVNSEEK-UHFFFAOYSA-N

>  <HIPPO Compound ID>  (200) 
289894

>  <fragmenstein_mode>  (200) 
expansion

>  <fragmenstein_outcome>  (200) 
too moved

>  <distance_score>  (200) 
1.319014

>  <subsites>  (200) 
None

>  <scratch_subdir>  (200) 
/opt/xchem-fragalysis-2/maxwin/BulkDock/SCRATCH/601502/BMRKSVKHVNSEEK-UHFFFAOYSA-N-P183-P126-P183-601502

>  <inspiration_score>  (200) 
None

>  <name>  (200) 
BMRKSVKHVNSEEK-UHFFFAOYSA-N-P183-P126-P183-601502

>  <ref_mols>  (200) 
A2290a,A3436a

>  <ref_pdb>  (200) 
A0514a

>  <exports>  (200) 
['/opt/xchem-fragalysis-2/maxwin/openbind-hippo/a71ev2a/cycle_01/syndirella/elabs/ASAP-0031281-001_elabs.sdf']

>  <Energy>  (200) 
123.535359

>  <tags>  (200) 
fragmenstein_placed,a71ev2a_c1_elab_bulkdock_input

>  <GNINA pK>  (200) 
nan

$$$$
HTTSBEHOPRZHSA-UHFFFAOYSA-N-P126-P126-P183-601502
     RDKit          3D

 30 33  0  0  0  0  0  0  0  0999 V2000
   14.4196   12.0450   24.9628 C   0  0  0  0  0  0  0  0  0  0  0  0
   13.5845   12.6207   23.9399 O   0  0  0  0  0  0  0  0  0  0  0  0
   12.6022   13.4629   24.3199 C   0  0  0  0  0  0  0  0  0  0  0  0
   12.3585   13.7479   25.4966 O   0  0  0  0  0  0  0  0  0  0  0  0
   11.6978   13.9921   23.2037 C   0  0  1  0  0  0  0  0  0  0  0  0
   12.0848   13.9397   21.7408 C   0  0  0  0  0  0  0  0  0  0  0  0
   11.0978   14.6944   20.9033 C   0  0  0  0  0  0  0  0  0  0  0  0
   10.9520   14.7809   19.5385 C   0  0  0  0  0  0  0  0  0  0  0  0
    9.9576   15.6774   19.2691 O   0  0  0  0  0  0  0  0  0  0  0  0
    9.5577   16.1049   20.4900 C   0  0  0  0  0  0  0  0  0  0  0  0
   10.1692   15.5245   21.4957 N   0  0  0  0  0  0  0  0  0  0  0  0
   10.4947   13.3078   23.5861 N   0  0  0  0  0  0  0  0  0  0  0  0
   10.2232   11.8211   23.7939 C   0  0  0  0  0  0  0  0  0  0  0  0
   10.9050   10.9006   23.6158 O   0  0  0  0  0  0  0  0  0  0  0  0
    8.8996   11.6221   24.4067 C   0  0  0  0  0  0  0  0  0  0  0  0
    8.3213   10.4126   24.4012 N   0  0  0  0  0  0  0  0  0  0  0  0
    7.2736   10.5419   25.2294 N   0  0  0  0  0  0  0  0  0  0  0  0
    6.6339    9.3277   25.7044 C   0  0  0  0  0  0  0  0  0  0  0  0
    5.6914    9.4187   26.9090 C   0  0  0  0  0  0  0  0  0  0  0  0
    4.4077    8.8434   26.8256 C   0  0  0  0  0  0  0  0  0  0  0  0
    3.5388    8.8338   27.9202 C   0  0  0  0  0  0  0  0  0  0  0  0
    3.9346    9.4011   29.1262 C   0  0  0  0  0  0  0  0  0  0  0  0
    5.2018    9.9637   29.2396 C   0  0  0  0  0  0  0  0  0  0  0  0
    6.0733    9.9587   28.1462 C   0  0  0  0  0  0  0  0  0  0  0  0
    7.0435   11.8211   25.6258 C   0  0  0  0  0  0  0  0  0  0  0  0
    5.9849   12.4126   26.3140 C   0  0  0  0  0  0  0  0  0  0  0  0
    6.1663   13.6964   26.7994 C   0  0  0  0  0  0  0  0  0  0  0  0
    7.3585   14.3691   26.5869 C   0  0  0  0  0  0  0  0  0  0  0  0
    8.3759   13.7957   25.8224 C   0  0  0  0  0  0  0  0  0  0  0  0
    8.1870   12.5143   25.2678 C   0  0  0  0  0  0  0  0  0  0  0  0
  1  2  1  0
  2  3  1  0
  3  4  2  0
  3  5  1  0
  5  6  1  6
  6  7  1  0
  7  8  2  0
  8  9  1  0
  9 10  1  0
 10 11  2  0
  5 12  1  0
 12 13  1  0
 13 14  2  0
 13 15  1  0
 15 16  2  0
 16 17  1  0
 17 18  1  0
 18 19  1  0
 19 20  2  0
 20 21  1  0
 21 22  2  0
 22 23  1  0
 23 24  2  0
 17 25  1  0
 25 26  2  0
 26 27  1  0
 27 28  2  0
 28 29  1  0
 29 30  2  0
 11  7  1  0
 30 15  1  0
 24 19  1  0
 30 25  1  0
M  END
>  <energy_score>  (201) 
-14.28737

>  <fragmenstein_runtime>  (201) 
23.199713

>  <HIPPO Pose ID>  (201) 
503520

>  <fragmenstein_error>  (201) 


>  <alias>  (201) 
HTTSBEHOPRZHSA-UHFFFAOYSA-N-P126-P126-P183-601502

>  <orig_smiles>  (201) 
COC(=O)C(Cc1cocn1)NC(=O)c1nn(Cc2ccccc2)c2ccccc12

>  <smiles>  (201) 
COC(=O)C(Cc1cocn1)NC(=O)c1nn(Cc2ccccc2)c2ccccc12

>  <inchikey>  (201) 
HTTSBEHOPRZHSA-UHFFFAOYSA-N

>  <HIPPO Compound ID>  (201) 
289895

>  <fragmenstein_mode>  (201) 
expansion

>  <fragmenstein_outcome>  (201) 
too moved

>  <distance_score>  (201) 
1.945645

>  <subsites>  (201) 
None

>  <scratch_subdir>  (201) 
/opt/xchem-fragalysis-2/maxwin/BulkDock/SCRATCH/601502/HTTSBEHOPRZHSA-UHFFFAOYSA-N-P126-P126-P183-601502

>  <inspiration_score>  (201) 
None

>  <name>  (201) 
HTTSBEHOPRZHSA-UHFFFAOYSA-N-P126-P126-P183-601502

>  <ref_mols>  (201) 
A2290a,A3436a

>  <ref_pdb>  (201) 
A0514a

>  <exports>  (201) 
['/opt/xchem-fragalysis-2/maxwin/openbind-hippo/a71ev2a/cycle_01/bulkdock/openbind_a71ev2a_c1_elab_chemspace.sdf', '/opt/xchem-fragalysis-2/maxwin/openbind-hippo/a71ev2a/cycle_01/syndirella/elabs/openbind_a71ev2a_c1_elab_chemspace_filtered.sdf', '/opt/xchem-fragalysis-2/maxwin/openbind-hippo/a71ev2a/cycle_01/syndirella/elabs/ASAP-0031281-001_elabs.sdf']

>  <Energy>  (201) 
158.864274

>  <tags>  (201) 
fragmenstein_placed,openbind_a71ev2a_c1_elabs_filtered,a71ev2a_c1_elab_bulkdock_input

>  <GNINA pK>  (201) 
nan

$$$$
HTTSBEHOPRZHSA-UHFFFAOYSA-N-P183-P126-P183-601502
     RDKit          3D

 30 33  0  0  0  0  0  0  0  0999 V2000
   14.2669   12.2011   25.3198 C   0  0  0  0  0  0  0  0  0  0  0  0
   13.4055   12.6019   24.2280 O   0  0  0  0  0  0  0  0  0  0  0  0
   12.5966   13.6462   24.5165 C   0  0  0  0  0  0  0  0  0  0  0  0
   12.5540   14.1382   25.6446 O   0  0  0  0  0  0  0  0  0  0  0  0
   11.6439   14.1307   23.4191 C   0  0  1  0  0  0  0  0  0  0  0  0
   11.9495   14.0604   21.9332 C   0  0  0  0  0  0  0  0  0  0  0  0
   10.9721   14.8119   21.0754 C   0  0  0  0  0  0  0  0  0  0  0  0
   10.9120   14.9352   19.7036 C   0  0  0  0  0  0  0  0  0  0  0  0
    9.9044   15.8010   19.3916 O   0  0  0  0  0  0  0  0  0  0  0  0
    9.4031   16.1671   20.6000 C   0  0  0  0  0  0  0  0  0  0  0  0
    9.9730   15.5803   21.6286 N   0  0  0  0  0  0  0  0  0  0  0  0
   10.4362   13.5189   23.8891 N   0  0  0  0  0  0  0  0  0  0  0  0
    9.5806   13.8303   25.1021 C   0  0  0  0  0  0  0  0  0  0  0  0
    9.7485   14.5843   25.9689 O   0  0  0  0  0  0  0  0  0  0  0  0
    8.3740   13.0179   25.1204 C   0  0  0  0  0  0  0  0  0  0  0  0
    8.3189   11.6699   25.0497 N   0  0  0  0  0  0  0  0  0  0  0  0
    7.0749   11.4133   25.5606 N   0  0  0  0  0  0  0  0  0  0  0  0
    6.7026   10.0927   26.0580 C   0  0  0  0  0  0  0  0  0  0  0  0
    5.8661   10.1112   27.3712 C   0  0  0  0  0  0  0  0  0  0  0  0
    4.7902    9.2256   27.5221 C   0  0  0  0  0  0  0  0  0  0  0  0
    4.0269    9.1587   28.6944 C   0  0  0  0  0  0  0  0  0  0  0  0
    4.2982   10.0155   29.7510 C   0  0  0  0  0  0  0  0  0  0  0  0
    5.3184   10.9469   29.6222 C   0  0  0  0  0  0  0  0  0  0  0  0
    6.0823   10.9949   28.4492 C   0  0  0  0  0  0  0  0  0  0  0  0
    6.3201   12.5399   25.7567 C   0  0  0  0  0  0  0  0  0  0  0  0
    5.0146   12.7375   26.2138 C   0  0  0  0  0  0  0  0  0  0  0  0
    4.5807   14.0352   26.4199 C   0  0  0  0  0  0  0  0  0  0  0  0
    5.4156   15.1085   26.1563 C   0  0  0  0  0  0  0  0  0  0  0  0
    6.7033   14.9075   25.6746 C   0  0  0  0  0  0  0  0  0  0  0  0
    7.1478   13.5967   25.4731 C   0  0  0  0  0  0  0  0  0  0  0  0
  1  2  1  0
  2  3  1  0
  3  4  2  0
  3  5  1  0
  5  6  1  6
  6  7  1  0
  7  8  2  0
  8  9  1  0
  9 10  1  0
 10 11  2  0
  5 12  1  0
 12 13  1  0
 13 14  2  0
 13 15  1  0
 15 16  2  0
 16 17  1  0
 17 18  1  0
 18 19  1  0
 19 20  2  0
 20 21  1  0
 21 22  2  0
 22 23  1  0
 23 24  2  0
 17 25  1  0
 25 26  2  0
 26 27  1  0
 27 28  2  0
 28 29  1  0
 29 30  2  0
 11  7  1  0
 30 15  1  0
 24 19  1  0
 30 25  1  0
M  END
>  <energy_score>  (202) 
-9.979315

>  <fragmenstein_runtime>  (202) 
17.338341

>  <HIPPO Pose ID>  (202) 
503521

>  <fragmenstein_error>  (202) 


>  <alias>  (202) 
HTTSBEHOPRZHSA-UHFFFAOYSA-N-P183-P126-P183-601502

>  <orig_smiles>  (202) 
COC(=O)C(Cc1cocn1)NC(=O)c1nn(Cc2ccccc2)c2ccccc12

>  <smiles>  (202) 
COC(=O)C(Cc1cocn1)NC(=O)c1nn(Cc2ccccc2)c2ccccc12

>  <inchikey>  (202) 
HTTSBEHOPRZHSA-UHFFFAOYSA-N

>  <HIPPO Compound ID>  (202) 
289895

>  <fragmenstein_mode>  (202) 
expansion

>  <fragmenstein_outcome>  (202) 
too moved

>  <distance_score>  (202) 
2.440847

>  <subsites>  (202) 
None

>  <scratch_subdir>  (202) 
/opt/xchem-fragalysis-2/maxwin/BulkDock/SCRATCH/601502/HTTSBEHOPRZHSA-UHFFFAOYSA-N-P183-P126-P183-601502

>  <inspiration_score>  (202) 
None

>  <name>  (202) 
HTTSBEHOPRZHSA-UHFFFAOYSA-N-P183-P126-P183-601502

>  <ref_mols>  (202) 
A2290a,A3436a

>  <ref_pdb>  (202) 
A0514a

>  <exports>  (202) 
['/opt/xchem-fragalysis-2/maxwin/openbind-hippo/a71ev2a/cycle_01/syndirella/elabs/ASAP-0031281-001_elabs.sdf']

>  <Energy>  (202) 
163.172329

>  <tags>  (202) 
fragmenstein_placed,a71ev2a_c1_elab_bulkdock_input

>  <GNINA pK>  (202) 
nan

$$$$
AKXUFMOJPOZWGY-UHFFFAOYSA-N-P126-P126-P183-601502
     RDKit          3D

 30 33  0  0  0  0  0  0  0  0999 V2000
    8.6079   17.3166   20.7526 C   0  0  0  0  0  0  0  0  0  0  0  0
    9.5422   16.1905   20.5843 C   0  0  0  0  0  0  0  0  0  0  0  0
   10.1253   15.4600   21.5174 N   0  0  0  0  0  0  0  0  0  0  0  0
   11.0561   14.7387   20.8292 C   0  0  0  0  0  0  0  0  0  0  0  0
   12.1812   13.9979   21.4327 C   0  0  0  0  0  0  0  0  0  0  0  0
   12.4524   14.3767   22.8488 C   0  0  0  0  0  0  0  0  0  0  0  0
   11.4763   13.8449   23.7356 N   0  0  0  0  0  0  0  0  0  0  0  0
   11.1231   14.2298   25.1617 C   0  0  0  0  0  0  0  0  0  0  0  0
   11.6203   14.9951   25.8819 O   0  0  0  0  0  0  0  0  0  0  0  0
    9.9083   13.5084   25.4980 C   0  0  0  0  0  0  0  0  0  0  0  0
    9.5701   12.3621   24.8659 N   0  0  0  0  0  0  0  0  0  0  0  0
    8.4429   12.0122   25.5138 N   0  0  0  0  0  0  0  0  0  0  0  0
    7.2747   11.6785   24.7246 C   0  0  0  0  0  0  0  0  0  0  0  0
    6.1306   11.2899   25.6662 C   0  0  0  0  0  0  0  0  0  0  0  0
    5.2275   12.2430   26.1945 C   0  0  0  0  0  0  0  0  0  0  0  0
    4.3589   11.8934   27.2321 C   0  0  0  0  0  0  0  0  0  0  0  0
    4.3449   10.5784   27.6987 C   0  0  0  0  0  0  0  0  0  0  0  0
    3.2653   10.1388   28.9632 Cl  0  0  0  0  0  0  0  0  0  0  0  0
    5.1841    9.6149   27.1373 C   0  0  0  0  0  0  0  0  0  0  0  0
    6.0776    9.9854   26.1339 C   0  0  0  0  0  0  0  0  0  0  0  0
    7.2389    8.9292   25.4734 Cl  0  0  0  0  0  0  0  0  0  0  0  0
    8.2873   12.6685   26.7110 C   0  0  0  0  0  0  0  0  0  0  0  0
    7.5820   12.3903   27.8887 C   0  0  0  0  0  0  0  0  0  0  0  0
    7.3960   13.4313   28.7784 C   0  0  0  0  0  0  0  0  0  0  0  0
    7.9759   14.6692   28.5357 C   0  0  0  0  0  0  0  0  0  0  0  0
    8.8271   14.8745   27.4449 C   0  0  0  0  0  0  0  0  0  0  0  0
    9.0005   13.8351   26.5293 C   0  0  0  0  0  0  0  0  0  0  0  0
   10.8987   14.9621   19.4930 C   0  0  0  0  0  0  0  0  0  0  0  0
   11.7088   14.5222   18.3693 C   0  0  0  0  0  0  0  0  0  0  0  0
    9.9113   15.8770   19.3080 O   0  0  0  0  0  0  0  0  0  0  0  0
  1  2  1  0
  2  3  2  0
  3  4  1  0
  4  5  1  0
  5  6  1  0
  6  7  1  0
  7  8  1  0
  8  9  2  0
  8 10  1  0
 10 11  2  0
 11 12  1  0
 12 13  1  0
 13 14  1  0
 14 15  2  0
 15 16  1  0
 16 17  2  0
 17 18  1  0
 17 19  1  0
 19 20  2  0
 20 21  1  0
 12 22  1  0
 22 23  2  0
 23 24  1  0
 24 25  2  0
 25 26  1  0
 26 27  2  0
  4 28  2  0
 28 29  1  0
 28 30  1  0
 30  2  1  0
 27 10  1  0
 20 14  1  0
 27 22  1  0
M  END
>  <energy_score>  (203) 
21.51423

>  <fragmenstein_runtime>  (203) 
14.486466

>  <HIPPO Pose ID>  (203) 
503522

>  <fragmenstein_error>  (203) 


>  <alias>  (203) 
AKXUFMOJPOZWGY-UHFFFAOYSA-N-P126-P126-P183-601502

>  <orig_smiles>  (203) 
Cc1nc(CCNC(=O)c2nn(Cc3ccc(Cl)cc3Cl)c3ccccc23)c(C)o1

>  <smiles>  (203) 
Cc1nc(CCNC(=O)c2nn(Cc3ccc(Cl)cc3Cl)c3ccccc23)c(C)o1

>  <inchikey>  (203) 
AKXUFMOJPOZWGY-UHFFFAOYSA-N

>  <HIPPO Compound ID>  (203) 
289896

>  <fragmenstein_mode>  (203) 
expansion

>  <fragmenstein_outcome>  (203) 
too moved

>  <distance_score>  (203) 
2.402301

>  <subsites>  (203) 
None

>  <scratch_subdir>  (203) 
/opt/xchem-fragalysis-2/maxwin/BulkDock/SCRATCH/601502/AKXUFMOJPOZWGY-UHFFFAOYSA-N-P126-P126-P183-601502

>  <inspiration_score>  (203) 
None

>  <name>  (203) 
AKXUFMOJPOZWGY-UHFFFAOYSA-N-P126-P126-P183-601502

>  <ref_mols>  (203) 
A2290a,A3436a

>  <ref_pdb>  (203) 
A0514a

>  <exports>  (203) 
['/opt/xchem-fragalysis-2/maxwin/openbind-hippo/a71ev2a/cycle_01/syndirella/elabs/ASAP-0031281-001_elabs.sdf']

>  <Energy>  (203) 
138.449752

>  <tags>  (203) 
fragmenstein_placed,a71ev2a_c1_elab_bulkdock_input

>  <GNINA pK>  (203) 
nan

$$$$
AKXUFMOJPOZWGY-UHFFFAOYSA-N-P183-P126-P183-601502
     RDKit          3D

 30 33  0  0  0  0  0  0  0  0999 V2000
    8.4073   18.1799   19.9330 C   0  0  0  0  0  0  0  0  0  0  0  0
    9.1991   16.9515   20.1394 C   0  0  0  0  0  0  0  0  0  0  0  0
    9.6932   16.4687   21.2565 N   0  0  0  0  0  0  0  0  0  0  0  0
   10.6558   15.5845   20.8524 C   0  0  0  0  0  0  0  0  0  0  0  0
   11.7260   15.1678   21.7875 C   0  0  0  0  0  0  0  0  0  0  0  0
   11.8678   13.6835   21.9734 C   0  0  0  0  0  0  0  0  0  0  0  0
   10.7466   13.0744   22.6187 N   0  0  0  0  0  0  0  0  0  0  0  0
   10.5465   12.6572   24.0669 C   0  0  0  0  0  0  0  0  0  0  0  0
   11.2843   12.6676   24.9606 O   0  0  0  0  0  0  0  0  0  0  0  0
    9.1341   12.2765   24.3286 C   0  0  0  0  0  0  0  0  0  0  0  0
    8.7361   11.1269   24.9212 N   0  0  0  0  0  0  0  0  0  0  0  0
    7.4792   11.3991   25.3536 N   0  0  0  0  0  0  0  0  0  0  0  0
    6.7099   10.4726   26.1910 C   0  0  0  0  0  0  0  0  0  0  0  0
    6.1651   11.0614   27.5382 C   0  0  0  0  0  0  0  0  0  0  0  0
    6.6555   12.2710   28.0938 C   0  0  0  0  0  0  0  0  0  0  0  0
    6.2120   12.7984   29.3136 C   0  0  0  0  0  0  0  0  0  0  0  0
    5.2479   12.1252   30.0369 C   0  0  0  0  0  0  0  0  0  0  0  0
    4.6996   12.7489   31.5394 Cl  0  0  0  0  0  0  0  0  0  0  0  0
    4.7245   10.9447   29.5378 C   0  0  0  0  0  0  0  0  0  0  0  0
    5.1709   10.4252   28.3078 C   0  0  0  0  0  0  0  0  0  0  0  0
    4.3782    8.9855   27.8326 Cl  0  0  0  0  0  0  0  0  0  0  0  0
    7.0622   12.6554   25.0305 C   0  0  0  0  0  0  0  0  0  0  0  0
    5.9019   13.3589   25.3692 C   0  0  0  0  0  0  0  0  0  0  0  0
    5.7626   14.6436   24.8872 C   0  0  0  0  0  0  0  0  0  0  0  0
    6.7443   15.1956   24.0834 C   0  0  0  0  0  0  0  0  0  0  0  0
    7.9059   14.4900   23.7671 C   0  0  0  0  0  0  0  0  0  0  0  0
    8.0723   13.2019   24.2688 C   0  0  0  0  0  0  0  0  0  0  0  0
   10.5726   15.4292   19.4900 C   0  0  0  0  0  0  0  0  0  0  0  0
   11.3856   14.7363   18.4944 C   0  0  0  0  0  0  0  0  0  0  0  0
    9.6210   16.2885   19.0220 O   0  0  0  0  0  0  0  0  0  0  0  0
  1  2  1  0
  2  3  2  0
  3  4  1  0
  4  5  1  0
  5  6  1  0
  6  7  1  0
  7  8  1  0
  8  9  2  0
  8 10  1  0
 10 11  2  0
 11 12  1  0
 12 13  1  0
 13 14  1  0
 14 15  2  0
 15 16  1  0
 16 17  2  0
 17 18  1  0
 17 19  1  0
 19 20  2  0
 20 21  1  0
 12 22  1  0
 22 23  2  0
 23 24  1  0
 24 25  2  0
 25 26  1  0
 26 27  2  0
  4 28  2  0
 28 29  1  0
 28 30  1  0
 30  2  1  0
 27 10  1  0
 20 14  1  0
 27 22  1  0
M  END
>  <energy_score>  (204) 
7.908196

>  <fragmenstein_runtime>  (204) 
23.650855

>  <HIPPO Pose ID>  (204) 
503523

>  <fragmenstein_error>  (204) 


>  <alias>  (204) 
AKXUFMOJPOZWGY-UHFFFAOYSA-N-P183-P126-P183-601502

>  <orig_smiles>  (204) 
Cc1nc(CCNC(=O)c2nn(Cc3ccc(Cl)cc3Cl)c3ccccc23)c(C)o1

>  <smiles>  (204) 
Cc1nc(CCNC(=O)c2nn(Cc3ccc(Cl)cc3Cl)c3ccccc23)c(C)o1

>  <inchikey>  (204) 
AKXUFMOJPOZWGY-UHFFFAOYSA-N

>  <HIPPO Compound ID>  (204) 
289896

>  <fragmenstein_mode>  (204) 
expansion

>  <fragmenstein_outcome>  (204) 
too moved

>  <distance_score>  (204) 
2.243938

>  <subsites>  (204) 
None

>  <scratch_subdir>  (204) 
/opt/xchem-fragalysis-2/maxwin/BulkDock/SCRATCH/601502/AKXUFMOJPOZWGY-UHFFFAOYSA-N-P183-P126-P183-601502

>  <inspiration_score>  (204) 
None

>  <name>  (204) 
AKXUFMOJPOZWGY-UHFFFAOYSA-N-P183-P126-P183-601502

>  <ref_mols>  (204) 
A2290a,A3436a

>  <ref_pdb>  (204) 
A0514a

>  <exports>  (204) 
['/opt/xchem-fragalysis-2/maxwin/openbind-hippo/a71ev2a/cycle_01/bulkdock/openbind_a71ev2a_c1_elab_chemspace.sdf', '/opt/xchem-fragalysis-2/maxwin/openbind-hippo/a71ev2a/cycle_01/syndirella/elabs/ASAP-0031281-001_elabs.sdf']

>  <Energy>  (204) 
124.843717

>  <tags>  (204) 
fragmenstein_placed,a71ev2a_c1_elab_bulkdock_input

>  <GNINA pK>  (204) 
nan

$$$$
